@<TRIPOS>MOLECULE
M16Zn_Calix4
  1234  1414    10     0     0
SMALL
NO_CHARGES
****
Generated from the CSD

@<TRIPOS>ATOM
     1 Pd1     11.4103  20.9481  19.7602   Pd        1 RES1   0.0000
     2 Zn1     -0.0017  19.0713  23.6172   Zn        1 RES1   0.0000
     3 Zn2      6.0146  11.8438  13.8665   Zn        1 RES1   0.0000
     4 N1       1.7245  18.5587  22.3872   N.2       1 RES1   0.0000
     5 N2       3.9835  26.1226  14.8494   N.2       1 RES1   0.0000
     6 N3       6.4344  19.9666  22.0949   N.pl3     1 RES1   0.0000
     7 H3       6.7086  19.7149  21.2963   H         1 RES1   0.0000
     8 N4      11.2794  18.9769  20.2828   N.2       1 RES1   0.0000
     9 N5       7.3064  11.7111  15.5744   N.2       1 RES1   0.0000
    10 N6       8.0843  24.4377  16.9830   N.pl3     1 RES1   0.0000
    11 H6       7.9010  23.6339  17.2877   H         1 RES1   0.0000
    12 N7       6.6293  13.8908  14.1748   N.2       1 RES1   0.0000
    13 N8      12.5666  20.4043  18.1975   N.2       1 RES1   0.0000
    14 N9       8.5616  18.2045  10.2411   N.2       1 RES1   0.0000
    15 N10      1.6169  19.8608  24.7689   N.2       1 RES1   0.0000
    16 N11      9.6747  14.6746  18.6954   N.2       1 RES1   0.0000
    17 N12      8.9877  16.5111  17.6204   N.pl3     1 RES1   0.0000
    18 H12      8.8671  17.3607  17.4250   H         1 RES1   0.0000
    19 N13      5.4005  28.2794  14.1420   N.2       1 RES1   0.0000
    20 N14     11.4386  22.8787  19.1272   N.2       1 RES1   0.0000
    21 N15     10.3403  21.4856  21.3875   N.2       1 RES1   0.0000
    22 N16     10.8093  19.3516  14.4445   N.pl3     1 RES1   0.0000
    23 H16     10.2693  19.8923  14.8826   H         1 RES1   0.0000
    24 N17      6.3915  20.8649  24.1368   N.2       1 RES1   0.0000
    25 N18     10.6723  16.6255   9.6772   N.2       1 RES1   0.0000
    26 N19      9.2189  26.2885  16.5657   N.2       1 RES1   0.0000
    27 N20     12.6409  18.1473  13.9307   N.2       1 RES1   0.0000
    28 C1       5.3031  26.1369  15.1944   C.2       1 RES1   0.0000
    29 C2       7.7342  12.8982  16.0426   C.2       1 RES1   0.0000
    30 C3       7.2470  25.2358  16.2619   C.2       1 RES1   0.0000
    31 C4       5.8943  25.0670  15.8655   C.2       1 RES1   0.0000
    32 C5       7.9522  26.4000  15.9802   C.2       1 RES1   0.0000
    33 C6       7.7160  15.3669  15.7317   C.2       1 RES1   0.0000
    34 C7       4.0644  19.1113  22.0661   C.2       1 RES1   0.0000
    35 C8       5.1990  19.7321  22.6574   C.2       1 RES1   0.0000
    36 C9      10.4741  16.8315  19.6268   C.2       1 RES1   0.0000
    37 C10      8.9216  14.3199  17.6102   C.2       1 RES1   0.0000
    38 C11      9.5327  18.0958  11.1717   C.2       1 RES1   0.0000
    39 C12      8.4493  21.2196  22.7743   C.2       1 RES1   0.0000
    40 C13     11.8564  18.4420  21.3118   C.2       1 RES1   0.0000
    41 H13     12.3568  18.9941  21.9031   H         1 RES1   0.0000
    42 C14      8.5616  13.0041  17.1920   C.2       1 RES1   0.0000
    43 C15      3.2948  25.0384  15.1545   C.2       1 RES1   0.0000
    44 H15      2.3799  25.0212  14.9047   H         1 RES1   0.0000
    45 C16      7.1264  20.6503  23.0016   C.2       1 RES1   0.0000
    46 C17      5.1495  20.2813  23.9136   C.2       1 RES1   0.0000
    47 C18      7.3229  16.4596  14.9375   C.2       1 RES1   0.0000
    48 H18      7.5376  17.3464  15.2015   H         1 RES1   0.0000
    49 C19      2.8852  19.1285  22.8138   C.2       1 RES1   0.0000
    50 C20      6.0413  27.3183  14.8582   C.2       1 RES1   0.0000
    51 C21     10.5732  18.1702  19.4714   C.2       1 RES1   0.0000
    52 H21     10.1157  18.5678  18.7405   H         1 RES1   0.0000
    53 C22      2.8390  19.7807  24.1607   C.2       1 RES1   0.0000
    54 C23      7.3939  27.4756  15.2653   C.2       1 RES1   0.0000
    55 C24      7.3361  14.0796  15.3016   C.2       1 RES1   0.0000
    56 C25      9.0092  11.8227  17.7524   C.2       1 RES1   0.0000
    57 H25      9.6301  11.8513  18.4703   H         1 RES1   0.0000
    58 C26     11.7705  17.1032  21.5682   C.2       1 RES1   0.0000
    59 H26     12.1834  16.7485  22.3460   H         1 RES1   0.0000
    60 C27      4.0265  18.4734  20.8073   C.2       1 RES1   0.0000
    61 H27      4.7911  18.4420  20.2465   H         1 RES1   0.0000
    62 C28      9.7111  15.9962  18.6480   C.2       1 RES1   0.0000
    63 C29      6.6392  16.2365  13.7899   C.2       1 RES1   0.0000
    64 H29      6.4014  16.9631  13.2260   H         1 RES1   0.0000
    65 C30      9.2486  25.1156  17.1451   C.2       1 RES1   0.0000
    66 C31     11.1000  16.2794  20.7213   C.2       1 RES1   0.0000
    67 H31     11.0670  15.3411  20.8799   H         1 RES1   0.0000
    68 C32     13.8928  20.3786  18.3153   C.2       1 RES1   0.0000
    69 H32     14.2990  20.7104  19.1082   H         1 RES1   0.0000
    70 C33      8.4823  15.4126  16.9427   C.2       1 RES1   0.0000
    71 C34      4.0099  20.3385  24.7046   C.2       1 RES1   0.0000
    72 C35     10.4344  23.3249  18.4061   C.2       1 RES1   0.0000
    73 H35      9.7160  22.7385  18.2002   H         1 RES1   0.0000
    74 C36      1.7275  17.9986  21.2117   C.2       1 RES1   0.0000
    75 H36      0.9133  17.6353  20.8843   H         1 RES1   0.0000
    76 C37      3.7985  23.9199  15.8114   C.2       1 RES1   0.0000
    77 H37      3.2502  23.1647  15.9855   H         1 RES1   0.0000
    78 C38     11.9819  19.9581  17.0330   C.2       1 RES1   0.0000
    79 H38     11.0372  20.0038  16.9378   H         1 RES1   0.0000
    80 C39      9.4253  18.7852  12.3902   C.2       1 RES1   0.0000
    81 C40      5.1049  23.9400  16.1959   C.2       1 RES1   0.0000
    82 H40      5.4798  23.2105  16.6765   H         1 RES1   0.0000
    83 C41     10.3915  24.6522  17.9282   C.2       1 RES1   0.0000
    84 C42     11.7061  17.9814  12.9461   C.2       1 RES1   0.0000
    85 C43     12.7317  19.4489  16.0121   C.2       1 RES1   0.0000
    86 C44      7.4963  18.8939  10.4975   C.2       1 RES1   0.0000
    87 H44      6.8225  18.9454   9.8287   H         1 RES1   0.0000
    88 C45     10.5599  18.6908  13.2552   C.2       1 RES1   0.0000
    89 C46      6.2858  14.9550  13.4475   C.2       1 RES1   0.0000
    90 H46      5.7738  14.8177  12.6591   H         1 RES1   0.0000
    91 C47      7.2866  19.5547  11.6846   C.2       1 RES1   0.0000
    92 H47      6.4707  20.0239  11.8263   H         1 RES1   0.0000
    93 C48      2.8357  17.9042  20.4303   C.2       1 RES1   0.0000
    94 H48      2.7828  17.4351  19.6043   H         1 RES1   0.0000
    95 C49     10.6904  17.2806  10.8519   C.2       1 RES1   0.0000
    96 C50      9.1495  20.9392  21.6719   C.2       1 RES1   0.0000
    97 H50      8.7862  20.3156  21.0527   H         1 RES1   0.0000
    98 C51      7.7606  10.6155  16.1848   C.2       1 RES1   0.0000
    99 H51      7.5029   9.7688  15.8393   H         1 RES1   0.0000
   100 C52      9.0339  22.1121  23.6837   C.2       1 RES1   0.0000
   101 H52      8.6045  22.2894  24.5120   H         1 RES1   0.0000
   102 C53      8.5864  10.6441  17.2921   C.2       1 RES1   0.0000
   103 H53      8.8473   9.8374  17.7218   H         1 RES1   0.0000
   104 C54     11.7656  17.2091  11.7820   C.2       1 RES1   0.0000
   105 C55     12.0810  18.9798  14.7905   C.2       1 RES1   0.0000
   106 C56      6.0958  29.3864  13.8063   C.2       1 RES1   0.0000
   107 H56      5.6747  30.0587  13.2836   H         1 RES1   0.0000
   108 C59      3.8910  20.9793  25.9471   C.2       1 RES1   0.0000
   109 H59      4.6441  21.3912  26.3457   H         1 RES1   0.0000
   110 C60     11.7259  15.8074   9.4256   C.2       1 RES1   0.0000
   111 H60     11.7127  15.3154   8.6106   H         1 RES1   0.0000
   112 C61     10.1950  22.7099  23.3958   C.2       1 RES1   0.0000
   113 H61     10.5484  23.3736  23.9760   H         1 RES1   0.0000
   114 C62     10.8605  22.3695  22.2840   C.2       1 RES1   0.0000
   115 H62     11.7111  22.7557  22.1157   H         1 RES1   0.0000
   116 C63      8.2643  19.5376  12.6750   C.2       1 RES1   0.0000
   117 H63      8.1603  20.0038  13.4962   H         1 RES1   0.0000
   118 C64     12.8308  16.3309  11.4277   C.2       1 RES1   0.0000
   119 H64     13.5707  16.2222  12.0168   H         1 RES1   0.0000
   120 C65     12.7928  15.6415  10.2451   C.2       1 RES1   0.0000
   121 H65     13.5030  15.0579  10.0059   H         1 RES1   0.0000
   122 C69      2.6821  21.0079  26.5672   C.2       1 RES1   0.0000
   123 H69      2.5995  21.4084  27.4220   H         1 RES1   0.0000
   124 C71      1.5855  20.4529  25.9528   C.2       1 RES1   0.0000
   125 H71      0.7498  20.4987  26.4077   H         1 RES1   0.0000
   126 C77     14.6772  19.8837  17.3099   C.2       1 RES1   0.0000
   127 H77     15.6219  19.8608  17.4162   H         1 RES1   0.0000
   128 C81      7.4319  29.5724  14.2226   C.2       1 RES1   0.0000
   129 H81      7.8878  30.3733  13.9923   H         1 RES1   0.0000
   130 C84     12.4774  23.6882  19.4227   C.2       1 RES1   0.0000
   131 H84     13.1892  23.3764  19.9675   H         1 RES1   0.0000
   132 C85      8.0678  28.6599  14.9224   C.2       1 RES1   0.0000
   133 H85      8.9662  28.7972  15.1926   H         1 RES1   0.0000
   134 C87     11.4320  25.4303  18.2134   C.2       1 RES1   0.0000
   135 H87     11.4320  26.3285  17.9078   H         1 RES1   0.0000
   136 C91     14.1124  19.4146  16.1449   C.2       1 RES1   0.0000
   137 H91     14.6574  19.0713  15.4451   H         1 RES1   0.0000
   138 C95     12.4939  24.9812  18.9266   C.2       1 RES1   0.0000
   139 H95     13.2404  25.5476  19.0860   H         1 RES1   0.0000
   140 Pd1     -7.3314  28.0131  19.7602   Pd        1 RES1   0.0000
   141 Zn2      3.2511  27.8924  13.8665   Zn        1 RES1   0.0000
   142 N1      -0.4192  20.8197  22.3872   N.2       1 RES1   0.0000
   143 N2      -8.0992  18.9941  14.8494   N.2       1 RES1   0.0000
   144 N3      -3.9934  24.1945  22.0949   N.pl3     1 RES1   0.0000
   145 H3      -3.9125  24.5578  21.2963   H         1 RES1   0.0000
   146 N4      -5.5588  28.8853  20.2828   N.2       1 RES1   0.0000
   147 N5       2.7201  29.0775  15.5744   N.2       1 RES1   0.0000
   148 N6      -8.6904  23.3879  16.9830   N.pl3     1 RES1   0.0000
   149 H6      -7.9026  23.6310  17.2877   H         1 RES1   0.0000
   150 N7       1.1709  27.4012  14.1748   N.2       1 RES1   0.0000
   151 N8      -7.4385  29.2863  18.1975   N.2       1 RES1   0.0000
   152 N9      -3.5310  26.9178  10.2411   N.2       1 RES1   0.0000
   153 N10     -1.4930  20.0753  24.7689   N.2       1 RES1   0.0000
   154 N11     -1.0306  29.6468  18.6954   N.2       1 RES1   0.0000
   155 N12     -2.2775  28.1335  17.6204   N.pl3     1 RES1   0.0000
   156 H12     -2.9530  27.6043  17.4250   H         1 RES1   0.0000
   157 N13    -10.6756  19.1428  14.1420   N.2       1 RES1   0.0000
   158 N14     -9.0174  27.0723  19.1272   N.2       1 RES1   0.0000
   159 N15     -7.2618  26.8177  21.3875   N.2       1 RES1   0.0000
   160 N16     -5.6483  28.2909  14.4445   N.pl3     1 RES1   0.0000
   161 H16     -5.8465  27.5528  14.8826   H         1 RES1   0.0000
   162 N17     -4.7498  23.7082  24.1368   N.2       1 RES1   0.0000
   163 N18     -3.2189  29.5352   9.6772   N.2       1 RES1   0.0000
   164 N19    -10.8605  23.4451  16.5657   N.2       1 RES1   0.0000
   165 N20     -5.5211  30.4792  13.9307   N.2       1 RES1   0.0000
   166 C1      -8.7713  20.1297  15.1944   C.2       1 RES1   0.0000
   167 C2       1.4781  28.8544  16.0426   C.2       1 RES1   0.0000
   168 C3      -8.9629  22.2637  16.2619   C.2       1 RES1   0.0000
   169 C4      -8.1404  21.1767  15.8655   C.2       1 RES1   0.0000
   170 C5     -10.3238  22.2923  15.9802   C.2       1 RES1   0.0000
   171 C6      -0.6507  27.6043  15.7317   C.2       1 RES1   0.0000
   172 C7      -2.0677  22.5697  22.0661   C.2       1 RES1   0.0000
   173 C8      -3.1726  23.2420  22.6574   C.2       1 RES1   0.0000
   174 C9      -3.2981  29.2606  19.6268   C.2       1 RES1   0.0000
   175 C10     -0.3468  29.1719  17.6102   C.2       1 RES1   0.0000
   176 C11     -3.9224  27.8131  11.1717   C.2       1 RES1   0.0000
   177 C12     -6.0859  25.3130  22.7743   C.2       1 RES1   0.0000
   178 C13     -5.3840  29.6525  21.3118   C.2       1 RES1   0.0000
   179 H13     -6.1123  29.8098  21.9031   H         1 RES1   0.0000
   180 C14      0.9728  29.5180  17.1920   C.2       1 RES1   0.0000
   181 C15     -6.8159  18.9397  15.1545   C.2       1 RES1   0.0000
   182 H15     -6.3436  18.1559  14.9047   H         1 RES1   0.0000
   183 C16     -4.9315  24.4520  23.0016   C.2       1 RES1   0.0000
   184 C17     -3.6235  22.9245  23.9136   C.2       1 RES1   0.0000
   185 C18     -1.4005  26.7175  14.9375   C.2       1 RES1   0.0000
   186 H18     -2.2758  26.4601  15.2015   H         1 RES1   0.0000
   187 C19     -1.4930  21.5400  22.8138   C.2       1 RES1   0.0000
   188 C20    -10.1636  20.1783  14.8582   C.2       1 RES1   0.0000
   189 C21     -4.5071  28.6770  19.4714   C.2       1 RES1   0.0000
   190 H21     -4.6227  28.0820  18.7405   H         1 RES1   0.0000
   191 C22     -2.0347  21.1738  24.1607   C.2       1 RES1   0.0000
   192 C23    -10.9761  21.2711  15.2653   C.2       1 RES1   0.0000
   193 C24      0.6540  27.9190  15.3016   C.2       1 RES1   0.0000
   194 C25      1.7721  30.4963  17.7524   C.2       1 RES1   0.0000
   195 H25      1.4368  31.0198  18.4703   H         1 RES1   0.0000
   196 C26     -4.1817  30.2475  21.5682   C.2       1 RES1   0.0000
   197 H26     -4.0810  30.7824  22.3460   H         1 RES1   0.0000
   198 C27     -1.4963  22.8558  20.8073   C.2       1 RES1   0.0000
   199 H27     -1.8514  23.5338  20.2465   H         1 RES1   0.0000
   200 C28     -2.1932  29.0174  18.6480   C.2       1 RES1   0.0000
   201 C29     -0.8654  26.2370  13.7899   C.2       1 RES1   0.0000
   202 H29     -1.3757  25.6677  13.2260   H         1 RES1   0.0000
   203 C30     -9.8597  24.0572  17.1451   C.2       1 RES1   0.0000
   204 C31     -3.1330  30.0787  20.7213   C.2       1 RES1   0.0000
   205 H31     -2.3039  30.5192  20.8799   H         1 RES1   0.0000
   206 C32     -8.0793  30.4477  18.3153   C.2       1 RES1   0.0000
   207 H32     -8.5698  30.6336  19.1082   H         1 RES1   0.0000
   208 C33     -1.0735  28.2451  16.9427   C.2       1 RES1   0.0000
   209 C34     -3.1032  21.9090  24.7046   C.2       1 RES1   0.0000
   210 C35     -8.9018  25.9795  18.4061   C.2       1 RES1   0.0000
   211 H35     -8.0347  25.6506  18.2002   H         1 RES1   0.0000
   212 C36      0.0644  21.1023  21.2117   C.2       1 RES1   0.0000
   213 H36      0.7861  20.5788  20.8843   H         1 RES1   0.0000
   214 C37     -6.0991  19.9352  15.8114   C.2       1 RES1   0.0000
   215 H37     -5.1710  19.8379  15.9855   H         1 RES1   0.0000
   216 C38     -6.7598  29.0031  17.0330   C.2       1 RES1   0.0000
   217 H38     -6.3270  28.1621  16.9378   H         1 RES1   0.0000
   218 C39     -4.4658  27.3755  12.3902   C.2       1 RES1   0.0000
   219 C40     -6.7697  21.0565  16.1959   C.2       1 RES1   0.0000
   220 H40     -6.3254  21.7459  16.6765   H         1 RES1   0.0000
   221 C41    -10.0298  25.2787  17.9282   C.2       1 RES1   0.0000
   222 C42     -4.9100  29.7526  12.9461   C.2       1 RES1   0.0000
   223 C43     -6.6937  29.9071  16.0121   C.2       1 RES1   0.0000
   224 C44     -3.5954  25.6506  10.4975   C.2       1 RES1   0.0000
   225 H44     -3.3031  25.0413   9.8287   H         1 RES1   0.0000
   226 C45     -4.9513  28.4053  13.2552   C.2       1 RES1   0.0000
   227 C46      0.4211  26.5717  13.4475   C.2       1 RES1   0.0000
   228 H46      0.7960  26.1969  12.6591   H         1 RES1   0.0000
   229 C47     -4.0628  25.1385  11.6846   C.2       1 RES1   0.0000
   230 H47     -4.0611  24.1974  11.8263   H         1 RES1   0.0000
   231 C48     -0.4079  22.1092  20.4303   C.2       1 RES1   0.0000
   232 H48      0.0248  22.2980  19.6043   H         1 RES1   0.0000
   233 C49     -3.7952  29.2234  10.8519   C.2       1 RES1   0.0000
   234 C50     -6.1933  26.0596  21.6719   C.2       1 RES1   0.0000
   235 H50     -5.4716  26.0568  21.0527   H         1 RES1   0.0000
   236 C51      3.4418  30.0186  16.1848   C.2       1 RES1   0.0000
   237 H51      4.3039  30.2189  15.8393   H         1 RES1   0.0000
   238 C52     -7.1512  25.3731  23.6837   C.2       1 RES1   0.0000
   239 H52     -7.0901  24.9125  24.5120   H         1 RES1   0.0000
   240 C53      3.0042  30.7195  17.2921   C.2       1 RES1   0.0000
   241 H53      3.5723  31.3488  17.7218   H         1 RES1   0.0000
   242 C54     -4.2709  30.1903  11.7820   C.2       1 RES1   0.0000
   243 C55     -5.9621  29.5781  14.7905   C.2       1 RES1   0.0000
   244 C56    -11.9819  19.1914  13.8063   C.2       1 RES1   0.0000
   245 H56    -12.3535  18.4906  13.2836   H         1 RES1   0.0000
   246 C59     -3.5987  21.4856  25.9471   C.2       1 RES1   0.0000
   247 H59     -4.3320  21.9318  26.3457   H         1 RES1   0.0000
   248 C60     -3.0372  30.8568   9.4256   C.2       1 RES1   0.0000
   249 H60     -2.6045  31.0913   8.6106   H         1 RES1   0.0000
   250 C61     -8.2494  26.0796  23.3958   C.2       1 RES1   0.0000
   251 H61     -9.0009  26.0539  23.9760   H         1 RES1   0.0000
   252 C62     -8.2874  26.8262  22.2840   C.2       1 RES1   0.0000
   253 H62     -9.0471  27.3698  22.1157   H         1 RES1   0.0000
   254 C63     -4.5368  25.9938  12.6750   C.2       1 RES1   0.0000
   255 H63     -4.8886  25.6706  13.4962   H         1 RES1   0.0000
   256 C64     -4.0430  31.5519  11.4277   C.2       1 RES1   0.0000
   257 H64     -4.3188  32.2470  12.0168   H         1 RES1   0.0000
   258 C65     -3.4269  31.8637  10.2451   C.2       1 RES1   0.0000
   259 H65     -3.2767  32.7705  10.0059   H         1 RES1   0.0000
   260 C69     -3.0190  20.4243  26.5672   C.2       1 RES1   0.0000
   261 H69     -3.3246  20.1526  27.4220   H         1 RES1   0.0000
   262 C71     -1.9901  19.7521  25.9528   C.2       1 RES1   0.0000
   263 H71     -1.6119  19.0055  26.4077   H         1 RES1   0.0000
   264 C77     -8.0430  31.3745  17.3099   C.2       1 RES1   0.0000
   265 H77     -8.4955  32.2041  17.4162   H         1 RES1   0.0000
   266 C81    -12.8110  20.2556  14.2226   C.2       1 RES1   0.0000
   267 H81    -13.7326  20.2498  13.9923   H         1 RES1   0.0000
   268 C84    -10.2379  27.5671  19.4227   C.2       1 RES1   0.0000
   269 H84    -10.3238  28.3395  19.9675   H         1 RES1   0.0000
   270 C85    -12.3387  21.2625  14.9224   C.2       1 RES1   0.0000
   271 H85    -12.9068  21.9719  15.1926   H         1 RES1   0.0000
   272 C87    -11.2239  25.7907  18.2134   C.2       1 RES1   0.0000
   273 H87    -12.0017  25.3416  17.9078   H         1 RES1   0.0000
   274 C91     -7.3543  31.1199  16.1449   C.2       1 RES1   0.0000
   275 H91     -7.3295  31.7636  15.4451   H         1 RES1   0.0000
   276 C95    -11.3659  26.9350  18.9266   C.2       1 RES1   0.0000
   277 H95    -12.2297  27.2982  19.0860   H         1 RES1   0.0000
   278 Pd1     -4.0790   8.2498  19.7602   Pd        1 RES1   0.0000
   279 Zn2     -9.2656  17.4748  13.8665   Zn        1 RES1   0.0000
   280 N1      -1.3054  17.8327  22.3872   N.2       1 RES1   0.0000
   281 N2       4.1156  12.0944  14.8494   N.2       1 RES1   0.0000
   282 N3      -2.4410  13.0498  22.0949   N.pl3     1 RES1   0.0000
   283 H3      -2.7961  12.9383  21.2963   H         1 RES1   0.0000
   284 N4      -5.7206   9.3489  20.2828   N.2       1 RES1   0.0000
   285 N5     -10.0265  16.4224  15.5744   N.2       1 RES1   0.0000
   286 N6       0.6061   9.3855  16.9830   N.pl3     1 RES1   0.0000
   287 H6       0.0017   9.9461  17.2877   H         1 RES1   0.0000
   288 N7      -7.8002  15.9190  14.1748   N.2       1 RES1   0.0000
   289 N8      -5.1280   7.5204  18.1975   N.2       1 RES1   0.0000
   290 N9      -5.0306  12.0887  10.2411   N.2       1 RES1   0.0000
   291 N10     -0.1239  17.2749  24.7689   N.2       1 RES1   0.0000
   292 N11     -8.6442  12.8896  18.6954   N.2       1 RES1   0.0000
   293 N12     -6.7102  12.5664  17.6204   N.pl3     1 RES1   0.0000
   294 H12     -5.9142  12.2460  17.4250   H         1 RES1   0.0000
   295 N13      5.2750   9.7888  14.1420   N.2       1 RES1   0.0000
   296 N14     -2.4212   7.2601  19.1272   N.2       1 RES1   0.0000
   297 N15     -3.0785   8.9078  21.3875   N.2       1 RES1   0.0000
   298 N16     -5.1611   9.5685  14.4445   N.pl3     1 RES1   0.0000
   299 H16     -4.4228   9.7659  14.8826   H         1 RES1   0.0000
   300 N17     -1.6416  12.6379  24.1368   N.2       1 RES1   0.0000
   301 N18     -7.4534  11.0503   9.6772   N.2       1 RES1   0.0000
   302 N19      1.6416   7.4775  16.5657   N.2       1 RES1   0.0000
   303 N20     -7.1198   8.5845  13.9307   N.2       1 RES1   0.0000
   304 C1       3.4682  10.9445  15.1944   C.2       1 RES1   0.0000
   305 C2      -9.2123  15.4584  16.0426   C.2       1 RES1   0.0000
   306 C3       1.7160   9.7116  16.2619   C.2       1 RES1   0.0000
   307 C4       2.2461  10.9674  15.8655   C.2       1 RES1   0.0000
   308 C5       2.3716   8.5187  15.9802   C.2       1 RES1   0.0000
   309 C6      -7.0653  14.2398  15.7317   C.2       1 RES1   0.0000
   310 C7      -1.9967  15.5299  22.0661   C.2       1 RES1   0.0000
   311 C8      -2.0264  14.2370  22.6574   C.2       1 RES1   0.0000
   312 C9      -7.1759  11.1190  19.6268   C.2       1 RES1   0.0000
   313 C10     -8.5748  13.7192  17.6102   C.2       1 RES1   0.0000
   314 C11     -5.6103  11.3020  11.1717   C.2       1 RES1   0.0000
   315 C12     -2.3634  10.6784  22.7743   C.2       1 RES1   0.0000
   316 C13     -6.4724   9.1166  21.3118   C.2       1 RES1   0.0000
   317 H13     -6.2445   8.4072  21.9031   H         1 RES1   0.0000
   318 C14     -9.5343  14.6889  17.1920   C.2       1 RES1   0.0000
   319 C15      3.5211  13.2329  15.1545   C.2       1 RES1   0.0000
   320 H15      3.9637  14.0339  14.9047   H         1 RES1   0.0000
   321 C16     -2.1949  12.1087  23.0016   C.2       1 RES1   0.0000
   322 C17     -1.5260  14.0053  23.9136   C.2       1 RES1   0.0000
   323 C18     -5.9224  14.0339  14.9375   C.2       1 RES1   0.0000
   324 H18     -5.2618  13.4045  15.2015   H         1 RES1   0.0000
   325 C19     -1.3922  16.5426  22.8138   C.2       1 RES1   0.0000
   326 C20      4.1222   9.7144  14.8582   C.2       1 RES1   0.0000
   327 C21     -6.0661  10.3638  19.4714   C.2       1 RES1   0.0000
   328 H21     -5.4930  10.5612  18.7405   H         1 RES1   0.0000
   329 C22     -0.8043  16.2565  24.1607   C.2       1 RES1   0.0000
   330 C23      3.5822   8.4644  15.2653   C.2       1 RES1   0.0000
   331 C24     -7.9902  15.2124  15.3016   C.2       1 RES1   0.0000
   332 C25    -10.7813  14.8920  17.7524   C.2       1 RES1   0.0000
   333 H25    -11.0670  14.3399  18.4703   H         1 RES1   0.0000
   334 C26     -7.5888   9.8603  21.5682   C.2       1 RES1   0.0000
   335 H26     -8.1025   9.6801  22.3460   H         1 RES1   0.0000
   336 C27     -2.5302  15.8818  20.8073   C.2       1 RES1   0.0000
   337 H27     -2.9397  15.2353  20.2465   H         1 RES1   0.0000
   338 C28     -7.5178  12.1974  18.6480   C.2       1 RES1   0.0000
   339 C29     -5.7738  14.7376  13.7899   C.2       1 RES1   0.0000
   340 H29     -5.0256  14.5802  13.2260   H         1 RES1   0.0000
   341 C30      0.6111   8.0381  17.1451   C.2       1 RES1   0.0000
   342 C31     -7.9670  10.8529  20.7213   C.2       1 RES1   0.0000
   343 H31     -8.7631  11.3507  20.8799   H         1 RES1   0.0000
   344 C32     -5.8134   6.3848  18.3153   C.2       1 RES1   0.0000
   345 H32     -5.7292   5.8670  19.1082   H         1 RES1   0.0000
   346 C33     -7.4088  13.5533  16.9427   C.2       1 RES1   0.0000
   347 C34     -0.9067  14.9635  24.7046   C.2       1 RES1   0.0000
   348 C35     -1.5326   7.9066  18.4061   C.2       1 RES1   0.0000
   349 H35     -1.6813   8.8219  18.2002   H         1 RES1   0.0000
   350 C36     -1.7919  18.1101  21.2117   C.2       1 RES1   0.0000
   351 H36     -1.6994  18.9969  20.8843   H         1 RES1   0.0000
   352 C37      2.3006  13.3559  15.8114   C.2       1 RES1   0.0000
   353 H37      1.9207  14.2084  15.9855   H         1 RES1   0.0000
   354 C38     -5.2222   8.2498  17.0330   C.2       1 RES1   0.0000
   355 H38     -4.7102   9.0451  16.9378   H         1 RES1   0.0000
   356 C39     -4.9596  11.0503  12.3902   C.2       1 RES1   0.0000
   357 C40      1.6648  12.2146  16.1959   C.2       1 RES1   0.0000
   358 H40      0.8456  12.2546  16.6765   H         1 RES1   0.0000
   359 C41     -0.3617   7.2801  17.9282   C.2       1 RES1   0.0000
   360 C42     -6.7961   9.4770  12.9461   C.2       1 RES1   0.0000
   361 C43     -6.0380   7.8551  16.0121   C.2       1 RES1   0.0000
   362 C44     -3.9009  12.6665  10.4975   C.2       1 RES1   0.0000
   363 H44     -3.5194  13.2243   9.8287   H         1 RES1   0.0000
   364 C45     -5.6086  10.1149  13.2552   C.2       1 RES1   0.0000
   365 C46     -6.7069  15.6844  13.4475   C.2       1 RES1   0.0000
   366 H46     -6.5698  16.1964  12.6591   H         1 RES1   0.0000
   367 C47     -3.2238  12.5178  11.6846   C.2       1 RES1   0.0000
   368 H47     -2.4096  12.9898  11.8263   H         1 RES1   0.0000
   369 C48     -2.4278  17.1976  20.4303   C.2       1 RES1   0.0000
   370 H48     -2.8076  17.4780  19.6043   H         1 RES1   0.0000
   371 C49     -6.8952  10.7070  10.8519   C.2       1 RES1   0.0000
   372 C50     -2.9563  10.2122  21.6719   C.2       1 RES1   0.0000
   373 H50     -3.3146  10.8386  21.0527   H         1 RES1   0.0000
   374 C51    -11.2024  16.5769  16.1848   C.2       1 RES1   0.0000
   375 H51    -11.8069  17.2234  15.8393   H         1 RES1   0.0000
   376 C52     -1.8828   9.7259  23.6837   C.2       1 RES1   0.0000
   377 H52     -1.5145  10.0091  24.5120   H         1 RES1   0.0000
   378 C53    -11.5905  15.8475  17.2921   C.2       1 RES1   0.0000
   379 H53    -12.4196  16.0248  17.7218   H         1 RES1   0.0000
   380 C54     -7.4947   9.8117  11.7820   C.2       1 RES1   0.0000
   381 C55     -6.1190   8.6532  14.7905   C.2       1 RES1   0.0000
   382 C56      5.8861   8.6331  13.8063   C.2       1 RES1   0.0000
   383 H56      6.6788   8.6617  13.2836   H         1 RES1   0.0000
   384 C59     -0.2923  14.7461  25.9471   C.2       1 RES1   0.0000
   385 H59     -0.3121  13.8880  26.3457   H         1 RES1   0.0000
   386 C60     -8.6888  10.5469   9.4256   C.2       1 RES1   0.0000
   387 H60     -9.1082  10.8043   8.6106   H         1 RES1   0.0000
   388 C61     -1.9455   8.4215  23.3958   C.2       1 RES1   0.0000
   389 H61     -1.5475   7.7836  23.9760   H         1 RES1   0.0000
   390 C62     -2.5731   8.0153  22.2840   C.2       1 RES1   0.0000
   391 H62     -2.6639   7.0856  22.1157   H         1 RES1   0.0000
   392 C63     -3.7275  11.6796  12.6750   C.2       1 RES1   0.0000
   393 H63     -3.2717  11.5366  13.4962   H         1 RES1   0.0000
   394 C64     -8.7878   9.3283  11.4277   C.2       1 RES1   0.0000
   395 H64     -9.2519   8.7418  12.0168   H         1 RES1   0.0000
   396 C65     -9.3659   9.7059  10.2451   C.2       1 RES1   0.0000
   397 H65    -10.2263   9.3826  10.0059   H         1 RES1   0.0000
   398 C69      0.3369  15.7788  26.5672   C.2       1 RES1   0.0000
   399 H69      0.7250  15.6501  27.4220   H         1 RES1   0.0000
   400 C71      0.4046  17.0060  25.9528   C.2       1 RES1   0.0000
   401 H71      0.8621  17.7068  26.4077   H         1 RES1   0.0000
   402 C77     -6.6342   5.9528  17.3099   C.2       1 RES1   0.0000
   403 H77     -7.1264   5.1461  17.4162   H         1 RES1   0.0000
   404 C81      5.3791   7.3831  14.2226   C.2       1 RES1   0.0000
   405 H81      5.8448   6.5878  13.9923   H         1 RES1   0.0000
   406 C84     -2.2395   5.9557  19.4227   C.2       1 RES1   0.0000
   407 H84     -2.8654   5.4951  19.9675   H         1 RES1   0.0000
   408 C85      4.2709   7.2887  14.9224   C.2       1 RES1   0.0000
   409 H85      3.9406   6.4420  15.1926   H         1 RES1   0.0000
   410 C87     -0.2081   5.9900  18.2134   C.2       1 RES1   0.0000
   411 H87      0.5698   5.5409  17.9078   H         1 RES1   0.0000
   412 C91     -6.7581   6.6765  16.1449   C.2       1 RES1   0.0000
   413 H91     -7.3279   6.3762  15.4451   H         1 RES1   0.0000
   414 C95     -1.1280   5.2949  18.9266   C.2       1 RES1   0.0000
   415 H95     -1.0107   4.3652  19.0860   H         1 RES1   0.0000
   416 Pd1      4.0790   8.2498   2.3865   Pd        1 RES1   0.0000
   417 Zn1     -0.0017  19.0713  -1.4705   Zn        1 RES1   0.0000
   418 Zn2      9.2656  17.4748   8.2802   Zn        1 RES1   0.0000
   419 N1       1.3054  17.8327  -0.2405   N.2       1 RES1   0.0000
   420 N2      -4.1156  12.0944   7.2973   N.2       1 RES1   0.0000
   421 N3       2.4410  13.0498   0.0518   N.pl3     1 RES1   0.0000
   422 H3       2.7961  12.9383   0.8504   H         1 RES1   0.0000
   423 N4       5.7206   9.3489   1.8639   N.2       1 RES1   0.0000
   424 N5      10.0265  16.4224   6.5723   N.2       1 RES1   0.0000
   425 N6      -0.6061   9.3855   5.1637   N.pl3     1 RES1   0.0000
   426 H6      -0.0017   9.9461   4.8590   H         1 RES1   0.0000
   427 N7       7.8002  15.9190   7.9719   N.2       1 RES1   0.0000
   428 N8       5.1280   7.5204   3.9492   N.2       1 RES1   0.0000
   429 N9       5.0306  12.0887  11.9056   N.2       1 RES1   0.0000
   430 N10      0.1239  17.2749  -2.6222   N.2       1 RES1   0.0000
   431 N11      8.6442  12.8896   3.4513   N.2       1 RES1   0.0000
   432 N12      6.7102  12.5664   4.5263   N.pl3     1 RES1   0.0000
   433 H12      5.9142  12.2460   4.7217   H         1 RES1   0.0000
   434 N13     -5.2750   9.7888   8.0047   N.2       1 RES1   0.0000
   435 N14      2.4212   7.2601   3.0195   N.2       1 RES1   0.0000
   436 N15      3.0785   8.9078   0.7592   N.2       1 RES1   0.0000
   437 N16      5.1611   9.5685   7.7022   N.pl3     1 RES1   0.0000
   438 H16      4.4228   9.7659   7.2641   H         1 RES1   0.0000
   439 N17      1.6416  12.6379  -1.9901   N.2       1 RES1   0.0000
   440 N18      7.4534  11.0503  12.4695   N.2       1 RES1   0.0000
   441 N19     -1.6416   7.4775   5.5810   N.2       1 RES1   0.0000
   442 N20      7.1198   8.5845   8.2160   N.2       1 RES1   0.0000
   443 C1      -3.4682  10.9445   6.9523   C.2       1 RES1   0.0000
   444 C2       9.2123  15.4584   6.1041   C.2       1 RES1   0.0000
   445 C3      -1.7160   9.7116   5.8848   C.2       1 RES1   0.0000
   446 C4      -2.2461  10.9674   6.2812   C.2       1 RES1   0.0000
   447 C5      -2.3716   8.5187   6.1665   C.2       1 RES1   0.0000
   448 C6       7.0653  14.2398   6.4150   C.2       1 RES1   0.0000
   449 C7       1.9967  15.5299   0.0806   C.2       1 RES1   0.0000
   450 C8       2.0264  14.2370  -0.5107   C.2       1 RES1   0.0000
   451 C9       7.1759  11.1190   2.5199   C.2       1 RES1   0.0000
   452 C10      8.5748  13.7192   4.5365   C.2       1 RES1   0.0000
   453 C11      5.6103  11.3020  10.9750   C.2       1 RES1   0.0000
   454 C12      2.3634  10.6784  -0.6276   C.2       1 RES1   0.0000
   455 C13      6.4724   9.1166   0.8349   C.2       1 RES1   0.0000
   456 H13      6.2445   8.4072   0.2436   H         1 RES1   0.0000
   457 C14      9.5343  14.6889   4.9547   C.2       1 RES1   0.0000
   458 C15     -3.5211  13.2329   6.9922   C.2       1 RES1   0.0000
   459 H15     -3.9637  14.0339   7.2420   H         1 RES1   0.0000
   460 C16      2.1949  12.1087  -0.8549   C.2       1 RES1   0.0000
   461 C17      1.5260  14.0053  -1.7669   C.2       1 RES1   0.0000
   462 C18      5.9224  14.0339   7.2092   C.2       1 RES1   0.0000
   463 H18      5.2618  13.4045   6.9452   H         1 RES1   0.0000
   464 C19      1.3922  16.5426  -0.6671   C.2       1 RES1   0.0000
   465 C20     -4.1222   9.7144   7.2885   C.2       1 RES1   0.0000
   466 C21      6.0661  10.3638   2.6753   C.2       1 RES1   0.0000
   467 H21      5.4930  10.5612   3.4062   H         1 RES1   0.0000
   468 C22      0.8043  16.2565  -2.0140   C.2       1 RES1   0.0000
   469 C23     -3.5822   8.4644   6.8814   C.2       1 RES1   0.0000
   470 C24      7.9902  15.2124   6.8451   C.2       1 RES1   0.0000
   471 C25     10.7813  14.8920   4.3943   C.2       1 RES1   0.0000
   472 H25     11.0670  14.3399   3.6764   H         1 RES1   0.0000
   473 C26      7.5888   9.8603   0.5785   C.2       1 RES1   0.0000
   474 H26      8.1025   9.6801  -0.1993   H         1 RES1   0.0000
   475 C27      2.5302  15.8818   1.3394   C.2       1 RES1   0.0000
   476 H27      2.9397  15.2353   1.9002   H         1 RES1   0.0000
   477 C28      7.5178  12.1974   3.4987   C.2       1 RES1   0.0000
   478 C29      5.7738  14.7376   8.3568   C.2       1 RES1   0.0000
   479 H29      5.0256  14.5802   8.9207   H         1 RES1   0.0000
   480 C30     -0.6111   8.0381   5.0016   C.2       1 RES1   0.0000
   481 C31      7.9670  10.8529   1.4254   C.2       1 RES1   0.0000
   482 H31      8.7631  11.3507   1.2668   H         1 RES1   0.0000
   483 C32      5.8134   6.3848   3.8314   C.2       1 RES1   0.0000
   484 H32      5.7292   5.8670   3.0385   H         1 RES1   0.0000
   485 C33      7.4088  13.5533   5.2040   C.2       1 RES1   0.0000
   486 C34      0.9067  14.9635  -2.5579   C.2       1 RES1   0.0000
   487 C35      1.5326   7.9066   3.7406   C.2       1 RES1   0.0000
   488 H35      1.6813   8.8219   3.9465   H         1 RES1   0.0000
   489 C36      1.7919  18.1101   0.9350   C.2       1 RES1   0.0000
   490 H36      1.6994  18.9969   1.2624   H         1 RES1   0.0000
   491 C37     -2.3006  13.3559   6.3353   C.2       1 RES1   0.0000
   492 H37     -1.9207  14.2084   6.1612   H         1 RES1   0.0000
   493 C38      5.2222   8.2498   5.1137   C.2       1 RES1   0.0000
   494 H38      4.7102   9.0451   5.2089   H         1 RES1   0.0000
   495 C39      4.9596  11.0503   9.7565   C.2       1 RES1   0.0000
   496 C40     -1.6648  12.2146   5.9508   C.2       1 RES1   0.0000
   497 H40     -0.8456  12.2546   5.4702   H         1 RES1   0.0000
   498 C41      0.3617   7.2801   4.2185   C.2       1 RES1   0.0000
   499 C42      6.7961   9.4770   9.2006   C.2       1 RES1   0.0000
   500 C43      6.0380   7.8551   6.1346   C.2       1 RES1   0.0000
   501 C44      3.9009  12.6665  11.6492   C.2       1 RES1   0.0000
   502 H44      3.5194  13.2243  12.3180   H         1 RES1   0.0000
   503 C45      5.6086  10.1149   8.8915   C.2       1 RES1   0.0000
   504 C46      6.7069  15.6844   8.6992   C.2       1 RES1   0.0000
   505 H46      6.5698  16.1964   9.4876   H         1 RES1   0.0000
   506 C47      3.2238  12.5178  10.4621   C.2       1 RES1   0.0000
   507 H47      2.4096  12.9898  10.3204   H         1 RES1   0.0000
   508 C48      2.4278  17.1976   1.7164   C.2       1 RES1   0.0000
   509 H48      2.8076  17.4780   2.5424   H         1 RES1   0.0000
   510 C49      6.8952  10.7070  11.2948   C.2       1 RES1   0.0000
   511 C50      2.9563  10.2122   0.4748   C.2       1 RES1   0.0000
   512 H50      3.3146  10.8386   1.0940   H         1 RES1   0.0000
   513 C51     11.2024  16.5769   5.9619   C.2       1 RES1   0.0000
   514 H51     11.8069  17.2234   6.3074   H         1 RES1   0.0000
   515 C52      1.8828   9.7259  -1.5370   C.2       1 RES1   0.0000
   516 H52      1.5145  10.0091  -2.3653   H         1 RES1   0.0000
   517 C53     11.5905  15.8475   4.8546   C.2       1 RES1   0.0000
   518 H53     12.4196  16.0248   4.4249   H         1 RES1   0.0000
   519 C54      7.4947   9.8117  10.3647   C.2       1 RES1   0.0000
   520 C55      6.1190   8.6532   7.3562   C.2       1 RES1   0.0000
   521 C56     -5.8861   8.6331   8.3404   C.2       1 RES1   0.0000
   522 H56     -6.6788   8.6617   8.8631   H         1 RES1   0.0000
   523 C59      0.2923  14.7461  -3.8004   C.2       1 RES1   0.0000
   524 H59      0.3121  13.8880  -4.1990   H         1 RES1   0.0000
   525 C60      8.6888  10.5469  12.7211   C.2       1 RES1   0.0000
   526 H60      9.1082  10.8043  13.5361   H         1 RES1   0.0000
   527 C61      1.9455   8.4215  -1.2491   C.2       1 RES1   0.0000
   528 H61      1.5475   7.7836  -1.8293   H         1 RES1   0.0000
   529 C62      2.5731   8.0153  -0.1373   C.2       1 RES1   0.0000
   530 H62      2.6639   7.0856   0.0310   H         1 RES1   0.0000
   531 C63      3.7275  11.6796   9.4717   C.2       1 RES1   0.0000
   532 H63      3.2717  11.5366   8.6505   H         1 RES1   0.0000
   533 C64      8.7878   9.3283  10.7190   C.2       1 RES1   0.0000
   534 H64      9.2519   8.7418  10.1299   H         1 RES1   0.0000
   535 C65      9.3659   9.7059  11.9016   C.2       1 RES1   0.0000
   536 H65     10.2263   9.3826  12.1408   H         1 RES1   0.0000
   537 C69     -0.3369  15.7788  -4.4205   C.2       1 RES1   0.0000
   538 H69     -0.7250  15.6501  -5.2753   H         1 RES1   0.0000
   539 C71     -0.4046  17.0060  -3.8061   C.2       1 RES1   0.0000
   540 H71     -0.8621  17.7068  -4.2610   H         1 RES1   0.0000
   541 C77      6.6342   5.9528   4.8368   C.2       1 RES1   0.0000
   542 H77      7.1264   5.1461   4.7305   H         1 RES1   0.0000
   543 C81     -5.3791   7.3831   7.9241   C.2       1 RES1   0.0000
   544 H81     -5.8448   6.5878   8.1544   H         1 RES1   0.0000
   545 C84      2.2395   5.9557   2.7240   C.2       1 RES1   0.0000
   546 H84      2.8654   5.4951   2.1792   H         1 RES1   0.0000
   547 C85     -4.2709   7.2887   7.2243   C.2       1 RES1   0.0000
   548 H85     -3.9406   6.4420   6.9541   H         1 RES1   0.0000
   549 C87      0.2081   5.9900   3.9333   C.2       1 RES1   0.0000
   550 H87     -0.5698   5.5409   4.2389   H         1 RES1   0.0000
   551 C91      6.7581   6.6765   6.0018   C.2       1 RES1   0.0000
   552 H91      7.3279   6.3762   6.7016   H         1 RES1   0.0000
   553 C95      1.1280   5.2949   3.2201   C.2       1 RES1   0.0000
   554 H95      1.0107   4.3652   3.0607   H         1 RES1   0.0000
   555 Pd1    -11.4103  20.9481   2.3865   Pd        1 RES1   0.0000
   556 Zn2     -6.0146  11.8438   8.2802   Zn        1 RES1   0.0000
   557 N1      -1.7245  18.5587  -0.2405   N.2       1 RES1   0.0000
   558 N2      -3.9835  26.1226   7.2973   N.2       1 RES1   0.0000
   559 N3      -6.4344  19.9666   0.0518   N.pl3     1 RES1   0.0000
   560 H3      -6.7086  19.7149   0.8504   H         1 RES1   0.0000
   561 N4     -11.2794  18.9769   1.8639   N.2       1 RES1   0.0000
   562 N5      -7.3064  11.7111   6.5723   N.2       1 RES1   0.0000
   563 N6      -8.0843  24.4377   5.1637   N.pl3     1 RES1   0.0000
   564 H6      -7.9010  23.6339   4.8590   H         1 RES1   0.0000
   565 N7      -6.6293  13.8908   7.9719   N.2       1 RES1   0.0000
   566 N8     -12.5666  20.4043   3.9492   N.2       1 RES1   0.0000
   567 N9      -8.5616  18.2045  11.9056   N.2       1 RES1   0.0000
   568 N10     -1.6169  19.8608  -2.6222   N.2       1 RES1   0.0000
   569 N11     -9.6747  14.6746   3.4513   N.2       1 RES1   0.0000
   570 N12     -8.9877  16.5111   4.5263   N.pl3     1 RES1   0.0000
   571 H12     -8.8671  17.3607   4.7217   H         1 RES1   0.0000
   572 N13     -5.4005  28.2794   8.0047   N.2       1 RES1   0.0000
   573 N14    -11.4386  22.8787   3.0195   N.2       1 RES1   0.0000
   574 N15    -10.3403  21.4856   0.7592   N.2       1 RES1   0.0000
   575 N16    -10.8093  19.3516   7.7022   N.pl3     1 RES1   0.0000
   576 H16    -10.2693  19.8923   7.2641   H         1 RES1   0.0000
   577 N17     -6.3915  20.8649  -1.9901   N.2       1 RES1   0.0000
   578 N18    -10.6723  16.6255  12.4695   N.2       1 RES1   0.0000
   579 N19     -9.2189  26.2885   5.5810   N.2       1 RES1   0.0000
   580 N20    -12.6409  18.1473   8.2160   N.2       1 RES1   0.0000
   581 C1      -5.3031  26.1369   6.9523   C.2       1 RES1   0.0000
   582 C2      -7.7342  12.8982   6.1041   C.2       1 RES1   0.0000
   583 C3      -7.2470  25.2358   5.8848   C.2       1 RES1   0.0000
   584 C4      -5.8943  25.0670   6.2812   C.2       1 RES1   0.0000
   585 C5      -7.9522  26.4000   6.1665   C.2       1 RES1   0.0000
   586 C6      -7.7160  15.3669   6.4150   C.2       1 RES1   0.0000
   587 C7      -4.0644  19.1113   0.0806   C.2       1 RES1   0.0000
   588 C8      -5.1990  19.7321  -0.5107   C.2       1 RES1   0.0000
   589 C9     -10.4741  16.8315   2.5199   C.2       1 RES1   0.0000
   590 C10     -8.9216  14.3199   4.5365   C.2       1 RES1   0.0000
   591 C11     -9.5327  18.0958  10.9750   C.2       1 RES1   0.0000
   592 C12     -8.4493  21.2196  -0.6276   C.2       1 RES1   0.0000
   593 C13    -11.8564  18.4420   0.8349   C.2       1 RES1   0.0000
   594 H13    -12.3568  18.9941   0.2436   H         1 RES1   0.0000
   595 C14     -8.5616  13.0041   4.9547   C.2       1 RES1   0.0000
   596 C15     -3.2948  25.0384   6.9922   C.2       1 RES1   0.0000
   597 H15     -2.3799  25.0212   7.2420   H         1 RES1   0.0000
   598 C16     -7.1264  20.6503  -0.8549   C.2       1 RES1   0.0000
   599 C17     -5.1495  20.2813  -1.7669   C.2       1 RES1   0.0000
   600 C18     -7.3229  16.4596   7.2092   C.2       1 RES1   0.0000
   601 H18     -7.5376  17.3464   6.9452   H         1 RES1   0.0000
   602 C19     -2.8852  19.1285  -0.6671   C.2       1 RES1   0.0000
   603 C20     -6.0413  27.3183   7.2885   C.2       1 RES1   0.0000
   604 C21    -10.5732  18.1702   2.6753   C.2       1 RES1   0.0000
   605 H21    -10.1157  18.5678   3.4062   H         1 RES1   0.0000
   606 C22     -2.8390  19.7807  -2.0140   C.2       1 RES1   0.0000
   607 C23     -7.3939  27.4756   6.8814   C.2       1 RES1   0.0000
   608 C24     -7.3361  14.0796   6.8451   C.2       1 RES1   0.0000
   609 C25     -9.0092  11.8227   4.3943   C.2       1 RES1   0.0000
   610 H25     -9.6301  11.8513   3.6764   H         1 RES1   0.0000
   611 C26    -11.7705  17.1032   0.5785   C.2       1 RES1   0.0000
   612 H26    -12.1834  16.7485  -0.1993   H         1 RES1   0.0000
   613 C27     -4.0265  18.4734   1.3394   C.2       1 RES1   0.0000
   614 H27     -4.7911  18.4420   1.9002   H         1 RES1   0.0000
   615 C28     -9.7111  15.9962   3.4987   C.2       1 RES1   0.0000
   616 C29     -6.6392  16.2365   8.3568   C.2       1 RES1   0.0000
   617 H29     -6.4014  16.9631   8.9207   H         1 RES1   0.0000
   618 C30     -9.2486  25.1156   5.0016   C.2       1 RES1   0.0000
   619 C31    -11.1000  16.2794   1.4254   C.2       1 RES1   0.0000
   620 H31    -11.0670  15.3411   1.2668   H         1 RES1   0.0000
   621 C32    -13.8928  20.3786   3.8314   C.2       1 RES1   0.0000
   622 H32    -14.2990  20.7104   3.0385   H         1 RES1   0.0000
   623 C33     -8.4823  15.4126   5.2040   C.2       1 RES1   0.0000
   624 C34     -4.0099  20.3385  -2.5579   C.2       1 RES1   0.0000
   625 C35    -10.4344  23.3249   3.7406   C.2       1 RES1   0.0000
   626 H35     -9.7160  22.7385   3.9465   H         1 RES1   0.0000
   627 C36     -1.7275  17.9986   0.9350   C.2       1 RES1   0.0000
   628 H36     -0.9133  17.6353   1.2624   H         1 RES1   0.0000
   629 C37     -3.7985  23.9199   6.3353   C.2       1 RES1   0.0000
   630 H37     -3.2502  23.1647   6.1612   H         1 RES1   0.0000
   631 C38    -11.9819  19.9581   5.1137   C.2       1 RES1   0.0000
   632 H38    -11.0372  20.0038   5.2089   H         1 RES1   0.0000
   633 C39     -9.4253  18.7852   9.7565   C.2       1 RES1   0.0000
   634 C40     -5.1049  23.9400   5.9508   C.2       1 RES1   0.0000
   635 H40     -5.4798  23.2105   5.4702   H         1 RES1   0.0000
   636 C41    -10.3915  24.6522   4.2185   C.2       1 RES1   0.0000
   637 C42    -11.7061  17.9814   9.2006   C.2       1 RES1   0.0000
   638 C43    -12.7317  19.4489   6.1346   C.2       1 RES1   0.0000
   639 C44     -7.4963  18.8939  11.6492   C.2       1 RES1   0.0000
   640 H44     -6.8225  18.9454  12.3180   H         1 RES1   0.0000
   641 C45    -10.5599  18.6908   8.8915   C.2       1 RES1   0.0000
   642 C46     -6.2858  14.9550   8.6992   C.2       1 RES1   0.0000
   643 H46     -5.7738  14.8177   9.4876   H         1 RES1   0.0000
   644 C47     -7.2866  19.5547  10.4621   C.2       1 RES1   0.0000
   645 H47     -6.4707  20.0239  10.3204   H         1 RES1   0.0000
   646 C48     -2.8357  17.9042   1.7164   C.2       1 RES1   0.0000
   647 H48     -2.7828  17.4351   2.5424   H         1 RES1   0.0000
   648 C49    -10.6904  17.2806  11.2948   C.2       1 RES1   0.0000
   649 C50     -9.1495  20.9392   0.4748   C.2       1 RES1   0.0000
   650 H50     -8.7862  20.3156   1.0940   H         1 RES1   0.0000
   651 C51     -7.7606  10.6155   5.9619   C.2       1 RES1   0.0000
   652 H51     -7.5029   9.7688   6.3074   H         1 RES1   0.0000
   653 C52     -9.0339  22.1121  -1.5370   C.2       1 RES1   0.0000
   654 H52     -8.6045  22.2894  -2.3653   H         1 RES1   0.0000
   655 C53     -8.5864  10.6441   4.8546   C.2       1 RES1   0.0000
   656 H53     -8.8473   9.8374   4.4249   H         1 RES1   0.0000
   657 C54    -11.7656  17.2091  10.3647   C.2       1 RES1   0.0000
   658 C55    -12.0810  18.9798   7.3562   C.2       1 RES1   0.0000
   659 C56     -6.0958  29.3864   8.3404   C.2       1 RES1   0.0000
   660 H56     -5.6747  30.0587   8.8631   H         1 RES1   0.0000
   661 C59     -3.8910  20.9793  -3.8004   C.2       1 RES1   0.0000
   662 H59     -4.6441  21.3912  -4.1990   H         1 RES1   0.0000
   663 C60    -11.7259  15.8074  12.7211   C.2       1 RES1   0.0000
   664 H60    -11.7127  15.3154  13.5361   H         1 RES1   0.0000
   665 C61    -10.1950  22.7099  -1.2491   C.2       1 RES1   0.0000
   666 H61    -10.5484  23.3736  -1.8293   H         1 RES1   0.0000
   667 C62    -10.8605  22.3695  -0.1373   C.2       1 RES1   0.0000
   668 H62    -11.7111  22.7557   0.0310   H         1 RES1   0.0000
   669 C63     -8.2643  19.5376   9.4717   C.2       1 RES1   0.0000
   670 H63     -8.1603  20.0038   8.6505   H         1 RES1   0.0000
   671 C64    -12.8308  16.3309  10.7190   C.2       1 RES1   0.0000
   672 H64    -13.5707  16.2222  10.1299   H         1 RES1   0.0000
   673 C65    -12.7928  15.6415  11.9016   C.2       1 RES1   0.0000
   674 H65    -13.5030  15.0579  12.1408   H         1 RES1   0.0000
   675 C69     -2.6821  21.0079  -4.4205   C.2       1 RES1   0.0000
   676 H69     -2.5995  21.4084  -5.2753   H         1 RES1   0.0000
   677 C71     -1.5855  20.4529  -3.8061   C.2       1 RES1   0.0000
   678 H71     -0.7498  20.4987  -4.2610   H         1 RES1   0.0000
   679 C77    -14.6772  19.8837   4.8368   C.2       1 RES1   0.0000
   680 H77    -15.6219  19.8608   4.7305   H         1 RES1   0.0000
   681 C81     -7.4319  29.5724   7.9241   C.2       1 RES1   0.0000
   682 H81     -7.8878  30.3733   8.1544   H         1 RES1   0.0000
   683 C84    -12.4774  23.6882   2.7240   C.2       1 RES1   0.0000
   684 H84    -13.1892  23.3764   2.1792   H         1 RES1   0.0000
   685 C85     -8.0678  28.6599   7.2243   C.2       1 RES1   0.0000
   686 H85     -8.9662  28.7972   6.9541   H         1 RES1   0.0000
   687 C87    -11.4320  25.4303   3.9333   C.2       1 RES1   0.0000
   688 H87    -11.4320  26.3285   4.2389   H         1 RES1   0.0000
   689 C91    -14.1124  19.4146   6.0018   C.2       1 RES1   0.0000
   690 H91    -14.6574  19.0713   6.7016   H         1 RES1   0.0000
   691 C95    -12.4939  24.9812   3.2201   C.2       1 RES1   0.0000
   692 H95    -13.2404  25.5476   3.0607   H         1 RES1   0.0000
   693 Pd1      7.3314  28.0131   2.3865   Pd        1 RES1   0.0000
   694 Zn2     -3.2511  27.8924   8.2802   Zn        1 RES1   0.0000
   695 N1       0.4192  20.8197  -0.2405   N.2       1 RES1   0.0000
   696 N2       8.0992  18.9941   7.2973   N.2       1 RES1   0.0000
   697 N3       3.9934  24.1945   0.0518   N.pl3     1 RES1   0.0000
   698 H3       3.9125  24.5578   0.8504   H         1 RES1   0.0000
   699 N4       5.5588  28.8853   1.8639   N.2       1 RES1   0.0000
   700 N5      -2.7201  29.0775   6.5723   N.2       1 RES1   0.0000
   701 N6       8.6904  23.3879   5.1637   N.pl3     1 RES1   0.0000
   702 H6       7.9026  23.6310   4.8590   H         1 RES1   0.0000
   703 N7      -1.1709  27.4012   7.9719   N.2       1 RES1   0.0000
   704 N8       7.4385  29.2863   3.9492   N.2       1 RES1   0.0000
   705 N9       3.5310  26.9178  11.9056   N.2       1 RES1   0.0000
   706 N10      1.4930  20.0753  -2.6222   N.2       1 RES1   0.0000
   707 N11      1.0306  29.6468   3.4513   N.2       1 RES1   0.0000
   708 N12      2.2775  28.1335   4.5263   N.pl3     1 RES1   0.0000
   709 H12      2.9530  27.6043   4.7217   H         1 RES1   0.0000
   710 N13     10.6756  19.1428   8.0047   N.2       1 RES1   0.0000
   711 N14      9.0174  27.0723   3.0195   N.2       1 RES1   0.0000
   712 N15      7.2618  26.8177   0.7592   N.2       1 RES1   0.0000
   713 N16      5.6483  28.2909   7.7022   N.pl3     1 RES1   0.0000
   714 H16      5.8465  27.5528   7.2641   H         1 RES1   0.0000
   715 N17      4.7498  23.7082  -1.9901   N.2       1 RES1   0.0000
   716 N18      3.2189  29.5352  12.4695   N.2       1 RES1   0.0000
   717 N19     10.8605  23.4451   5.5810   N.2       1 RES1   0.0000
   718 N20      5.5211  30.4792   8.2160   N.2       1 RES1   0.0000
   719 C1       8.7713  20.1297   6.9523   C.2       1 RES1   0.0000
   720 C2      -1.4781  28.8544   6.1041   C.2       1 RES1   0.0000
   721 C3       8.9629  22.2637   5.8848   C.2       1 RES1   0.0000
   722 C4       8.1404  21.1767   6.2812   C.2       1 RES1   0.0000
   723 C5      10.3238  22.2923   6.1665   C.2       1 RES1   0.0000
   724 C6       0.6507  27.6043   6.4150   C.2       1 RES1   0.0000
   725 C7       2.0677  22.5697   0.0806   C.2       1 RES1   0.0000
   726 C8       3.1726  23.2420  -0.5107   C.2       1 RES1   0.0000
   727 C9       3.2981  29.2606   2.5199   C.2       1 RES1   0.0000
   728 C10      0.3468  29.1719   4.5365   C.2       1 RES1   0.0000
   729 C11      3.9224  27.8131  10.9750   C.2       1 RES1   0.0000
   730 C12      6.0859  25.3130  -0.6276   C.2       1 RES1   0.0000
   731 C13      5.3840  29.6525   0.8349   C.2       1 RES1   0.0000
   732 H13      6.1123  29.8098   0.2436   H         1 RES1   0.0000
   733 C14     -0.9728  29.5180   4.9547   C.2       1 RES1   0.0000
   734 C15      6.8159  18.9397   6.9922   C.2       1 RES1   0.0000
   735 H15      6.3436  18.1559   7.2420   H         1 RES1   0.0000
   736 C16      4.9315  24.4520  -0.8549   C.2       1 RES1   0.0000
   737 C17      3.6235  22.9245  -1.7669   C.2       1 RES1   0.0000
   738 C18      1.4005  26.7175   7.2092   C.2       1 RES1   0.0000
   739 H18      2.2758  26.4601   6.9452   H         1 RES1   0.0000
   740 C19      1.4930  21.5400  -0.6671   C.2       1 RES1   0.0000
   741 C20     10.1636  20.1783   7.2885   C.2       1 RES1   0.0000
   742 C21      4.5071  28.6770   2.6753   C.2       1 RES1   0.0000
   743 H21      4.6227  28.0820   3.4062   H         1 RES1   0.0000
   744 C22      2.0347  21.1738  -2.0140   C.2       1 RES1   0.0000
   745 C23     10.9761  21.2711   6.8814   C.2       1 RES1   0.0000
   746 C24     -0.6540  27.9190   6.8451   C.2       1 RES1   0.0000
   747 C25     -1.7721  30.4963   4.3943   C.2       1 RES1   0.0000
   748 H25     -1.4368  31.0198   3.6764   H         1 RES1   0.0000
   749 C26      4.1817  30.2475   0.5785   C.2       1 RES1   0.0000
   750 H26      4.0810  30.7824  -0.1993   H         1 RES1   0.0000
   751 C27      1.4963  22.8558   1.3394   C.2       1 RES1   0.0000
   752 H27      1.8514  23.5338   1.9002   H         1 RES1   0.0000
   753 C28      2.1932  29.0174   3.4987   C.2       1 RES1   0.0000
   754 C29      0.8654  26.2370   8.3568   C.2       1 RES1   0.0000
   755 H29      1.3757  25.6677   8.9207   H         1 RES1   0.0000
   756 C30      9.8597  24.0572   5.0016   C.2       1 RES1   0.0000
   757 C31      3.1330  30.0787   1.4254   C.2       1 RES1   0.0000
   758 H31      2.3039  30.5192   1.2668   H         1 RES1   0.0000
   759 C32      8.0793  30.4477   3.8314   C.2       1 RES1   0.0000
   760 H32      8.5698  30.6336   3.0385   H         1 RES1   0.0000
   761 C33      1.0735  28.2451   5.2040   C.2       1 RES1   0.0000
   762 C34      3.1032  21.9090  -2.5579   C.2       1 RES1   0.0000
   763 C35      8.9018  25.9795   3.7406   C.2       1 RES1   0.0000
   764 H35      8.0347  25.6506   3.9465   H         1 RES1   0.0000
   765 C36     -0.0644  21.1023   0.9350   C.2       1 RES1   0.0000
   766 H36     -0.7861  20.5788   1.2624   H         1 RES1   0.0000
   767 C37      6.0991  19.9352   6.3353   C.2       1 RES1   0.0000
   768 H37      5.1710  19.8379   6.1612   H         1 RES1   0.0000
   769 C38      6.7598  29.0031   5.1137   C.2       1 RES1   0.0000
   770 H38      6.3270  28.1621   5.2089   H         1 RES1   0.0000
   771 C39      4.4658  27.3755   9.7565   C.2       1 RES1   0.0000
   772 C40      6.7697  21.0565   5.9508   C.2       1 RES1   0.0000
   773 H40      6.3254  21.7459   5.4702   H         1 RES1   0.0000
   774 C41     10.0298  25.2787   4.2185   C.2       1 RES1   0.0000
   775 C42      4.9100  29.7526   9.2006   C.2       1 RES1   0.0000
   776 C43      6.6937  29.9071   6.1346   C.2       1 RES1   0.0000
   777 C44      3.5954  25.6506  11.6492   C.2       1 RES1   0.0000
   778 H44      3.3031  25.0413  12.3180   H         1 RES1   0.0000
   779 C45      4.9513  28.4053   8.8915   C.2       1 RES1   0.0000
   780 C46     -0.4211  26.5717   8.6992   C.2       1 RES1   0.0000
   781 H46     -0.7960  26.1969   9.4876   H         1 RES1   0.0000
   782 C47      4.0628  25.1385  10.4621   C.2       1 RES1   0.0000
   783 H47      4.0611  24.1974  10.3204   H         1 RES1   0.0000
   784 C48      0.4079  22.1092   1.7164   C.2       1 RES1   0.0000
   785 H48     -0.0248  22.2980   2.5424   H         1 RES1   0.0000
   786 C49      3.7952  29.2234  11.2948   C.2       1 RES1   0.0000
   787 C50      6.1933  26.0596   0.4748   C.2       1 RES1   0.0000
   788 H50      5.4716  26.0568   1.0940   H         1 RES1   0.0000
   789 C51     -3.4418  30.0186   5.9619   C.2       1 RES1   0.0000
   790 H51     -4.3039  30.2189   6.3074   H         1 RES1   0.0000
   791 C52      7.1512  25.3731  -1.5370   C.2       1 RES1   0.0000
   792 H52      7.0901  24.9125  -2.3653   H         1 RES1   0.0000
   793 C53     -3.0042  30.7195   4.8546   C.2       1 RES1   0.0000
   794 H53     -3.5723  31.3488   4.4249   H         1 RES1   0.0000
   795 C54      4.2709  30.1903  10.3647   C.2       1 RES1   0.0000
   796 C55      5.9621  29.5781   7.3562   C.2       1 RES1   0.0000
   797 C56     11.9819  19.1914   8.3404   C.2       1 RES1   0.0000
   798 H56     12.3535  18.4906   8.8631   H         1 RES1   0.0000
   799 C59      3.5987  21.4856  -3.8004   C.2       1 RES1   0.0000
   800 H59      4.3320  21.9318  -4.1990   H         1 RES1   0.0000
   801 C60      3.0372  30.8568  12.7211   C.2       1 RES1   0.0000
   802 H60      2.6045  31.0913  13.5361   H         1 RES1   0.0000
   803 C61      8.2494  26.0796  -1.2491   C.2       1 RES1   0.0000
   804 H61      9.0009  26.0539  -1.8293   H         1 RES1   0.0000
   805 C62      8.2874  26.8262  -0.1373   C.2       1 RES1   0.0000
   806 H62      9.0471  27.3698   0.0310   H         1 RES1   0.0000
   807 C63      4.5368  25.9938   9.4717   C.2       1 RES1   0.0000
   808 H63      4.8886  25.6706   8.6505   H         1 RES1   0.0000
   809 C64      4.0430  31.5519  10.7190   C.2       1 RES1   0.0000
   810 H64      4.3188  32.2470  10.1299   H         1 RES1   0.0000
   811 C65      3.4269  31.8637  11.9016   C.2       1 RES1   0.0000
   812 H65      3.2767  32.7705  12.1408   H         1 RES1   0.0000
   813 C69      3.0190  20.4243  -4.4205   C.2       1 RES1   0.0000
   814 H69      3.3246  20.1526  -5.2753   H         1 RES1   0.0000
   815 C71      1.9901  19.7521  -3.8061   C.2       1 RES1   0.0000
   816 H71      1.6119  19.0055  -4.2610   H         1 RES1   0.0000
   817 C77      8.0430  31.3745   4.8368   C.2       1 RES1   0.0000
   818 H77      8.4955  32.2041   4.7305   H         1 RES1   0.0000
   819 C81     12.8110  20.2556   7.9241   C.2       1 RES1   0.0000
   820 H81     13.7326  20.2498   8.1544   H         1 RES1   0.0000
   821 C84     10.2379  27.5671   2.7240   C.2       1 RES1   0.0000
   822 H84     10.3238  28.3395   2.1792   H         1 RES1   0.0000
   823 C85     12.3387  21.2625   7.2243   C.2       1 RES1   0.0000
   824 H85     12.9068  21.9719   6.9541   H         1 RES1   0.0000
   825 C87     11.2239  25.7907   3.9333   C.2       1 RES1   0.0000
   826 H87     12.0017  25.3416   4.2389   H         1 RES1   0.0000
   827 C91      7.3543  31.1199   6.0018   C.2       1 RES1   0.0000
   828 H91      7.3295  31.7636   6.7016   H         1 RES1   0.0000
   829 C95     11.3659  26.9350   3.2201   C.2       1 RES1   0.0000
   830 H95     12.2297  27.2982   3.0607   H         1 RES1   0.0000
   831 Si1      7.9556  20.4269  16.8722   Si        2 RES2   0.0000
   832 F1       8.9215  20.5963  18.2728   F         2 RES2   0.0000
   833 F2       9.2034  21.2522  15.8460   F         2 RES2   0.0000
   834 F3       7.2767  21.8031  17.1672   F         2 RES2   0.0000
   835 F4       8.5675  18.9552  16.6397   F         2 RES2   0.0000
   836 F5       7.0653  20.2870  15.5138   F         2 RES2   0.0000
   837 F10      7.0042  19.8837  17.9477   F         2 RES2   0.0000
   838 F6      17.4287  17.2577  17.6864   F         3 RES3   0.0000
   839 F7      19.2636  18.4391  17.3674   F         3 RES3   0.0000
   840 F8      18.7549  17.2720  15.7640   F         3 RES3   0.0000
   841 F9      17.4171  18.7652  15.9988   F         3 RES3   0.0000
   842 B1      18.1339  17.9528  16.6587   B         3 RES3   0.0000
   843 O1      11.8960  15.8961  26.1623   O.3       4 RES4   0.0000
   844 H1      12.3106  15.2639  25.8009   H         4 RES4   0.0000
   845 O2      13.1677  14.4486  24.1824   O.3       4 RES4   0.0000
   846 H2      13.7359  14.9750  23.8609   H         4 RES4   0.0000
   847 O3      13.9324  17.4036  25.0758   O.3       4 RES4   0.0000
   848 H3A     13.2008  16.9945  25.0169   H         4 RES4   0.0000
   849 O4      15.6715  15.6501  23.7767   O.3       4 RES4   0.0000
   850 H4      15.3279  16.1650  24.3437   H         4 RES4   0.0000
   851 C57     11.1859  13.5275  23.3515   C.2       4 RES4   0.0000
   852 C58     12.5302  13.8022  23.1787   C.2       4 RES4   0.0000
   853 C66     10.9497  16.4367  25.2384   C.2       4 RES4   0.0000
   854 C67     10.7400  17.7726  25.1631   C.2       4 RES4   0.0000
   855 C68     15.2454  18.0186  21.0394   C.2       4 RES4   0.0000
   856 H68     15.3560  18.9483  20.8755   H         4 RES4   0.0000
   857 C70     14.7928  19.3116  23.9362   C.2       4 RES4   0.0000
   858 C72     15.5080  17.5180  22.2796   C.2       4 RES4   0.0000
   859 C73     10.2164  15.4927  24.5120   C.2       4 RES4   0.0000
   860 C74     10.5682  12.8296  22.4169   C.2       4 RES4   0.0000
   861 H74      9.6632  12.5836  22.5675   H         4 RES4   0.0000
   862 C75      9.8267  18.2160  24.2905   C.2       4 RES4   0.0000
   863 H75      9.7210  19.1543  24.1753   H         4 RES4   0.0000
   864 C76     12.6706  19.4346  25.1719   C.2       4 RES4   0.0000
   865 C78      9.0653  17.4007  23.5862   C.2       4 RES4   0.0000
   866 H78      8.3882  17.7669  23.0281   H         4 RES4   0.0000
   867 C79     13.1842  13.4703  22.0537   C.2       4 RES4   0.0000
   868 C80     11.1611  12.4262  21.2165   C.2       4 RES4   0.0000
   869 H80     10.6871  11.9314  20.5566   H         4 RES4   0.0000
   870 C82     13.7507  18.6966  24.7379   C.2       4 RES4   0.0000
   871 C83     10.4328  13.9624  24.5607   C.3       4 RES4   0.0000
   872 H83A    10.9381  13.7221  25.3757   H         4 RES4   0.0000
   873 H83B     9.5558  13.5018  24.5917   H         4 RES4   0.0000
   874 C86     15.9291  18.5221  23.4534   C.3       4 RES4   0.0000
   875 H86A    16.3090  18.0014  24.2063   H         4 RES4   0.0000
   876 H86B    16.6376  19.1314  23.1212   H         4 RES4   0.0000
   877 C88     12.5352  12.8153  21.0482   C.2       4 RES4   0.0000
   878 H88     12.9910  12.6150  20.2377   H         4 RES4   0.0000
   879 C89     14.8985  15.3011  21.5576   C.2       4 RES4   0.0000
   880 C90     14.8094  17.1833  20.0029   C.2       4 RES4   0.0000
   881 H90     14.6376  17.5495  19.1436   H         4 RES4   0.0000
   882 C92     15.3659  16.1163  22.4435   C.2       4 RES4   0.0000
   883 C93     14.6326  20.6761  23.6837   C.2       4 RES4   0.0000
   884 H93     15.2834  21.1280  23.1610   H         4 RES4   0.0000
   885 C94     14.6293  15.8246  20.2199   C.2       4 RES4   0.0000
   886 H94     14.3354  15.2525  19.5201   H         4 RES4   0.0000
   887 C96      9.2205  15.9991  23.6305   C.2       4 RES4   0.0000
   888 H96      8.6888  15.4212  23.0990   H         4 RES4   0.0000
   889 C97     14.6690  13.7993  21.7879   C.3       4 RES4   0.0000
   890 H97A    15.2140  13.5018  22.5586   H         4 RES4   0.0000
   891 H97B    14.9745  13.2987  20.9906   H         4 RES4   0.0000
   892 C98     11.5624  18.7166  26.0047   C.3       4 RES4   0.0000
   893 H98A    11.9819  18.2131  26.7444   H         4 RES4   0.0000
   894 H98B    10.9646  19.3974  26.4077   H         4 RES4   0.0000
   895 C99     12.5979  20.7790  24.8929   C.2       4 RES4   0.0000
   896 H99     11.8647  21.2939  25.2074   H         4 RES4   0.0000
   897 C100    13.5889  21.3626  24.1576   C.2       4 RES4   0.0000
   898 H100    13.5344  22.2923  23.9716   H         4 RES4   0.0000
   899 O1      -4.6194  12.7094   4.0156   O.3       5 RES5   0.0000
   900 H1      -4.2048  13.3416   3.6542   H         5 RES5   0.0000
   901 O2      -3.3477  14.1569   2.0357   O.3       5 RES5   0.0000
   902 H2      -2.7795  13.6305   1.7142   H         5 RES5   0.0000
   903 O3      -2.5830  11.2019   2.9291   O.3       5 RES5   0.0000
   904 H3A     -3.3146  11.6110   2.8702   H         5 RES5   0.0000
   905 O4      -0.8439  12.9554   1.6300   O.3       5 RES5   0.0000
   906 H4      -1.1875  12.4405   2.1970   H         5 RES5   0.0000
   907 C57     -5.3295  15.0780   1.2048   C.2       5 RES5   0.0000
   908 C58     -3.9852  14.8034   1.0320   C.2       5 RES5   0.0000
   909 C66     -5.5657  12.1688   3.0917   C.2       5 RES5   0.0000
   910 C67     -5.7754  10.8329   3.0164   C.2       5 RES5   0.0000
   911 C68     -1.2700  10.5869  -1.1073   C.2       5 RES5   0.0000
   912 H68     -1.1594   9.6572  -1.2712   H         5 RES5   0.0000
   913 C70     -1.7226   9.2939   1.7895   C.2       5 RES5   0.0000
   914 C72     -1.0074  11.0875   0.1329   C.2       5 RES5   0.0000
   915 C73     -6.2990  13.1128   2.3653   C.2       5 RES5   0.0000
   916 C74     -5.9472  15.7759   0.2702   C.2       5 RES5   0.0000
   917 H74     -6.8522  16.0219   0.4208   H         5 RES5   0.0000
   918 C75     -6.6887  10.3895   2.1438   C.2       5 RES5   0.0000
   919 H75     -6.7944   9.4513   2.0286   H         5 RES5   0.0000
   920 C76     -3.8448   9.1709   3.0252   C.2       5 RES5   0.0000
   921 C78     -7.4501  11.2048   1.4395   C.2       5 RES5   0.0000
   922 H78     -8.1272  10.8386   0.8814   H         5 RES5   0.0000
   923 C79     -3.3312  15.1352  -0.0930   C.2       5 RES5   0.0000
   924 C80     -5.3543  16.1793  -0.9302   C.2       5 RES5   0.0000
   925 H80     -5.8283  16.6742  -1.5901   H         5 RES5   0.0000
   926 C82     -2.7647   9.9089   2.5912   C.2       5 RES5   0.0000
   927 C83     -6.0826  14.6432   2.4140   C.3       5 RES5   0.0000
   928 H83A    -5.5773  14.8834   3.2290   H         5 RES5   0.0000
   929 H83B    -6.9596  15.1037   2.4450   H         5 RES5   0.0000
   930 C86     -0.5863  10.0834   1.3067   C.3       5 RES5   0.0000
   931 H86A    -0.2064  10.6041   2.0596   H         5 RES5   0.0000
   932 H86B     0.1222   9.4741   0.9745   H         5 RES5   0.0000
   933 C88     -3.9802  15.7902  -1.0985   C.2       5 RES5   0.0000
   934 H88     -3.5244  15.9905  -1.9090   H         5 RES5   0.0000
   935 C89     -1.6169  13.3044  -0.5891   C.2       5 RES5   0.0000
   936 C90     -1.7060  11.4222  -2.1438   C.2       5 RES5   0.0000
   937 H90     -1.8778  11.0560  -3.0031   H         5 RES5   0.0000
   938 C92     -1.1495  12.4892   0.2968   C.2       5 RES5   0.0000
   939 C93     -1.8828   7.9294   1.5370   C.2       5 RES5   0.0000
   940 H93     -1.2320   7.4775   1.0143   H         5 RES5   0.0000
   941 C94     -1.8861  12.7809  -1.9268   C.2       5 RES5   0.0000
   942 H94     -2.1800  13.3531  -2.6266   H         5 RES5   0.0000
   943 C96     -7.2949  12.6064   1.4838   C.2       5 RES5   0.0000
   944 H96     -7.8266  13.1843   0.9523   H         5 RES5   0.0000
   945 C97     -1.8464  14.8062  -0.3588   C.3       5 RES5   0.0000
   946 H97A    -1.3014  15.1037   0.4119   H         5 RES5   0.0000
   947 H97B    -1.5409  15.3068  -1.1561   H         5 RES5   0.0000
   948 C98     -4.9530   9.8889   3.8580   C.3       5 RES5   0.0000
   949 H98A    -4.5335  10.3924   4.5977   H         5 RES5   0.0000
   950 H98B    -5.5508   9.2081   4.2610   H         5 RES5   0.0000
   951 C99     -3.9175   7.8265   2.7462   C.2       5 RES5   0.0000
   952 H99     -4.6507   7.3116   3.0607   H         5 RES5   0.0000
   953 C100    -2.9265   7.2429   2.0109   C.2       5 RES5   0.0000
   954 H100    -2.9810   6.3132   1.8249   H         5 RES5   0.0000
   955 O1       7.8184  18.2503   4.0156   O.3       6 RES6   0.0000
   956 H1       7.0636  18.2932   3.6542   H         6 RES6   0.0000
   957 O2       5.9290  18.6279   2.0357   O.3       6 RES6   0.0000
   958 H2       6.1008  19.3831   1.7142   H         6 RES6   0.0000
   959 O3       8.1058  20.7676   2.9291   O.3       6 RES6   0.0000
   960 H3A      8.1173  19.9295   2.8702   H         6 RES6   0.0000
   961 O4       5.7176  21.3969   1.6300   O.3       6 RES6   0.0000
   962 H4       6.3353  21.3569   2.1970   H         6 RES6   0.0000
   963 C57      6.1223  16.4510   1.2048   C.2       6 RES6   0.0000
   964 C58      5.6879  17.7526   1.0320   C.2       6 RES6   0.0000
   965 C66      8.7598  17.7011   3.0917   C.2       6 RES6   0.0000
   966 C67     10.0215  18.1874   3.0164   C.2       6 RES6   0.0000
   967 C68      7.9819  22.2122  -1.1073   C.2       6 RES6   0.0000
   968 H68      8.7317  22.7728  -1.2712   H         6 RES6   0.0000
   969 C70      9.3279  22.4668   1.7895   C.2       6 RES6   0.0000
   970 C72      7.4171  22.1893   0.1329   C.2       6 RES6   0.0000
   971 C73      8.3089  16.5941   2.3653   C.2       6 RES6   0.0000
   972 C74      5.8266  15.5671   0.2702   C.2       6 RES6   0.0000
   973 H74      6.0661  14.6603   0.4208   H         6 RES6   0.0000
   974 C75     10.8622  17.6181   2.1438   C.2       6 RES6   0.0000
   975 H75     11.7276  17.9957   2.0286   H         6 RES6   0.0000
   976 C76     10.4955  20.6904   3.0252   C.2       6 RES6   0.0000
   977 C78     10.5368  16.5511   1.4395   C.2       6 RES6   0.0000
   978 H78     11.1925  16.1478   0.8814   H         6 RES6   0.0000
   979 C79      5.0735  18.1531  -0.0930   C.2       6 RES6   0.0000
   980 C80      5.1809  15.8789  -0.9302   C.2       6 RES6   0.0000
   981 H80      4.9893  15.2210  -1.5901   H         6 RES6   0.0000
   982 C82      9.3163  21.2568   2.5912   C.2       6 RES6   0.0000
   983 C83      6.8754  16.0162   2.4140   C.3       6 RES6   0.0000
   984 H83A     6.4146  16.3337   3.2290   H         6 RES6   0.0000
   985 H83B     6.9150  15.0265   2.4450   H         6 RES6   0.0000
   986 C86      8.0760  23.0560   1.3067   C.3       6 RES6   0.0000
   987 H86A     7.4352  23.1247   2.0596   H         6 RES6   0.0000
   988 H86B     8.2494  23.9743   0.9745   H         6 RES6   0.0000
   989 C88      4.8308  17.2634  -1.0985   C.2       6 RES6   0.0000
   990 H88      4.4294  17.5581  -1.9090   H         6 RES6   0.0000
   991 C89      5.8019  20.5531  -0.5891   C.2       6 RES6   0.0000
   992 C90      7.4765  21.4169  -2.1438   C.2       6 RES6   0.0000
   993 H90      7.8795  21.4513  -3.0031   H         6 RES6   0.0000
   994 C92      6.2742  21.3655   0.2968   C.2       6 RES6   0.0000
   995 C93     10.5897  23.0103   1.5370   C.2       6 RES6   0.0000
   996 H93     10.6557  23.7998   1.0143   H         6 RES6   0.0000
   997 C94      6.3898  20.5817  -1.9268   C.2       6 RES6   0.0000
   998 H94      6.0413  20.0410  -2.6266   H         6 RES6   0.0000
   999 C96      9.2453  15.9848   1.4838   C.2       6 RES6   0.0000
  1000 H96      9.0108  15.2353   0.9523   H         6 RES6   0.0000
  1001 C97      4.6161  19.6034  -0.3588   C.3       6 RES6   0.0000
  1002 H97A     4.0859  19.9266   0.4119   H         6 RES6   0.0000
  1003 H97B     4.0298  19.6177  -1.1561   H         6 RES6   0.0000
  1004 C98     10.4278  19.3717   3.8580   C.3       6 RES6   0.0000
  1005 H98A     9.7821  19.4832   4.5977   H         6 RES6   0.0000
  1006 H98B    11.3164  19.1943   4.2610   H         6 RES6   0.0000
  1007 C99     11.6962  21.2997   2.7462   C.2       6 RES6   0.0000
  1008 H99     12.5088  20.9221   3.0607   H         6 RES6   0.0000
  1009 C100    11.7061  22.4496   2.0109   C.2       6 RES6   0.0000
  1010 H100    12.5385  22.8672   1.8249   H         6 RES6   0.0000
  1011 O1      -3.1990  26.2513   4.0156   O.3       7 RES7   0.0000
  1012 H1      -2.8588  25.5762   3.6542   H         7 RES7   0.0000
  1013 O2      -2.5814  24.4262   2.0357   O.3       7 RES7   0.0000
  1014 H2      -3.3212  24.1974   1.7142   H         7 RES7   0.0000
  1015 O3      -5.5227  25.2415   2.9291   O.3       7 RES7   0.0000
  1016 H3A     -4.8027  25.6706   2.8702   H         7 RES7   0.0000
  1017 O4      -4.8737  22.8587   1.6300   O.3       7 RES7   0.0000
  1018 H4      -5.1479  23.4136   2.1970   H         7 RES7   0.0000
  1019 C57     -0.7927  25.6820   1.2048   C.2       7 RES7   0.0000
  1020 C58     -1.7027  24.6551   1.0320   C.2       7 RES7   0.0000
  1021 C66     -3.1941  27.3411   3.0917   C.2       7 RES7   0.0000
  1022 C67     -4.2461  28.1907   3.0164   C.2       7 RES7   0.0000
  1023 C68     -6.7119  24.4119  -1.1073   C.2       7 RES7   0.0000
  1024 H68     -7.5723  24.7810  -1.2712   H         7 RES7   0.0000
  1025 C70     -7.6053  25.4503   1.7895   C.2       7 RES7   0.0000
  1026 C72     -6.4096  23.9342   0.1329   C.2       7 RES7   0.0000
  1027 C73     -2.0099  27.5042   2.3653   C.2       7 RES7   0.0000
  1028 C74      0.1206  25.8680   0.2702   C.2       7 RES7   0.0000
  1029 H74      0.7861  26.5288   0.4208   H         7 RES7   0.0000
  1030 C75     -4.1734  29.2034   2.1438   C.2       7 RES7   0.0000
  1031 H75     -4.9331  29.7640   2.0286   H         7 RES7   0.0000
  1032 C76     -6.6508  27.3497   3.0252   C.2       7 RES7   0.0000
  1033 C78     -3.0867  29.4551   1.4395   C.2       7 RES7   0.0000
  1034 H78     -3.0653  30.2246   0.8814   H         7 RES7   0.0000
  1035 C79     -1.7424  23.9228  -0.0930   C.2       7 RES7   0.0000
  1036 C80      0.1734  25.1528  -0.9302   C.2       7 RES7   0.0000
  1037 H80      0.8390  25.3159  -1.5901   H         7 RES7   0.0000
  1038 C82     -6.5517  26.0453   2.5912   C.2       7 RES7   0.0000
  1039 C83     -0.7927  26.5516   2.4140   C.3       7 RES7   0.0000
  1040 H83A    -0.8373  25.9938   3.2290   H         7 RES7   0.0000
  1041 H83B     0.0446  27.0808   2.4450   H         7 RES7   0.0000
  1042 C86     -7.4897  24.0715   1.3067   C.3       7 RES7   0.0000
  1043 H86A    -7.2288  23.4823   2.0596   H         7 RES7   0.0000
  1044 H86B    -8.3717  23.7626   0.9745   H         7 RES7   0.0000
  1045 C88     -0.8505  24.1574  -1.0985   C.2       7 RES7   0.0000
  1046 H88     -0.9050  23.6625  -1.9090   H         7 RES7   0.0000
  1047 C89     -4.1850  23.3535  -0.5891   C.2       7 RES7   0.0000
  1048 C90     -5.7705  24.3719  -2.1438   C.2       7 RES7   0.0000
  1049 H90     -6.0017  24.7037  -3.0031   H         7 RES7   0.0000
  1050 C92     -5.1247  23.3564   0.2968   C.2       7 RES7   0.0000
  1051 C93     -8.7069  26.2713   1.5370   C.2       7 RES7   0.0000
  1052 H93     -9.4237  25.9338   1.0143   H         7 RES7   0.0000
  1053 C94     -4.5037  23.8484  -1.9268   C.2       7 RES7   0.0000
  1054 H94     -3.8613  23.8169  -2.6266   H         7 RES7   0.0000
  1055 C96     -1.9505  28.6198   1.4838   C.2       7 RES7   0.0000
  1056 H96     -1.1842  28.7914   0.9523   H         7 RES7   0.0000
  1057 C97     -2.7696  22.8015  -0.3588   C.3       7 RES7   0.0000
  1058 H97A    -2.7845  22.1807   0.4119   H         7 RES7   0.0000
  1059 H97B    -2.4889  22.2866  -1.1561   H         7 RES7   0.0000
  1060 C98     -5.4749  27.9504   3.8580   C.3       7 RES7   0.0000
  1061 H98A    -5.2486  27.3354   4.5977   H         7 RES7   0.0000
  1062 H98B    -5.7655  28.8086   4.2610   H         7 RES7   0.0000
  1063 C99     -7.7788  28.0849   2.7462   C.2       7 RES7   0.0000
  1064 H99     -7.8580  28.9774   3.0607   H         7 RES7   0.0000
  1065 C100    -8.7796  27.5185   2.0109   C.2       7 RES7   0.0000
  1066 H100    -9.5575  28.0305   1.8249   H         7 RES7   0.0000
  1067 O1       3.1990  26.2513  18.1311   O.3       8 RES8   0.0000
  1068 H1       2.8588  25.5762  18.4925   H         8 RES8   0.0000
  1069 O2       2.5814  24.4262  20.1110   O.3       8 RES8   0.0000
  1070 H2       3.3212  24.1974  20.4325   H         8 RES8   0.0000
  1071 O3       5.5227  25.2415  19.2176   O.3       8 RES8   0.0000
  1072 H3A      4.8027  25.6706  19.2765   H         8 RES8   0.0000
  1073 O4       4.8737  22.8587  20.5167   O.3       8 RES8   0.0000
  1074 H4       5.1479  23.4136  19.9497   H         8 RES8   0.0000
  1075 C57      0.7927  25.6820  20.9419   C.2       8 RES8   0.0000
  1076 C58      1.7027  24.6551  21.1147   C.2       8 RES8   0.0000
  1077 C66      3.1941  27.3411  19.0550   C.2       8 RES8   0.0000
  1078 C67      4.2461  28.1907  19.1303   C.2       8 RES8   0.0000
  1079 C68      6.7119  24.4119  23.2540   C.2       8 RES8   0.0000
  1080 H68      7.5723  24.7810  23.4179   H         8 RES8   0.0000
  1081 C70      7.6053  25.4503  20.3572   C.2       8 RES8   0.0000
  1082 C72      6.4096  23.9342  22.0138   C.2       8 RES8   0.0000
  1083 C73      2.0099  27.5042  19.7814   C.2       8 RES8   0.0000
  1084 C74     -0.1206  25.8680  21.8765   C.2       8 RES8   0.0000
  1085 H74     -0.7861  26.5288  21.7259   H         8 RES8   0.0000
  1086 C75      4.1734  29.2034  20.0029   C.2       8 RES8   0.0000
  1087 H75      4.9331  29.7640  20.1181   H         8 RES8   0.0000
  1088 C76      6.6508  27.3497  19.1215   C.2       8 RES8   0.0000
  1089 C78      3.0867  29.4551  20.7072   C.2       8 RES8   0.0000
  1090 H78      3.0653  30.2246  21.2653   H         8 RES8   0.0000
  1091 C79      1.7424  23.9228  22.2397   C.2       8 RES8   0.0000
  1092 C80     -0.1734  25.1528  23.0769   C.2       8 RES8   0.0000
  1093 H80     -0.8390  25.3159  23.7368   H         8 RES8   0.0000
  1094 C82      6.5517  26.0453  19.5555   C.2       8 RES8   0.0000
  1095 C83      0.7927  26.5516  19.7327   C.3       8 RES8   0.0000
  1096 H83A     0.8373  25.9938  18.9177   H         8 RES8   0.0000
  1097 H83B    -0.0446  27.0808  19.7017   H         8 RES8   0.0000
  1098 C86      7.4897  24.0715  20.8400   C.3       8 RES8   0.0000
  1099 H86A     7.2288  23.4823  20.0871   H         8 RES8   0.0000
  1100 H86B     8.3717  23.7626  21.1722   H         8 RES8   0.0000
  1101 C88      0.8505  24.1574  23.2452   C.2       8 RES8   0.0000
  1102 H88      0.9050  23.6625  24.0557   H         8 RES8   0.0000
  1103 C89      4.1850  23.3535  22.7358   C.2       8 RES8   0.0000
  1104 C90      5.7705  24.3719  24.2905   C.2       8 RES8   0.0000
  1105 H90      6.0017  24.7037  25.1498   H         8 RES8   0.0000
  1106 C92      5.1247  23.3564  21.8499   C.2       8 RES8   0.0000
  1107 C93      8.7069  26.2713  20.6097   C.2       8 RES8   0.0000
  1108 H93      9.4237  25.9338  21.1324   H         8 RES8   0.0000
  1109 C94      4.5037  23.8484  24.0735   C.2       8 RES8   0.0000
  1110 H94      3.8613  23.8169  24.7733   H         8 RES8   0.0000
  1111 C96      1.9505  28.6198  20.6629   C.2       8 RES8   0.0000
  1112 H96      1.1842  28.7914  21.1944   H         8 RES8   0.0000
  1113 C97      2.7696  22.8015  22.5055   C.3       8 RES8   0.0000
  1114 H97A     2.7845  22.1807  21.7348   H         8 RES8   0.0000
  1115 H97B     2.4889  22.2866  23.3028   H         8 RES8   0.0000
  1116 C98      5.4749  27.9504  18.2887   C.3       8 RES8   0.0000
  1117 H98A     5.2486  27.3354  17.5490   H         8 RES8   0.0000
  1118 H98B     5.7655  28.8086  17.8857   H         8 RES8   0.0000
  1119 C99      7.7788  28.0849  19.4005   C.2       8 RES8   0.0000
  1120 H99      7.8580  28.9774  19.0860   H         8 RES8   0.0000
  1121 C100     8.7796  27.5185  20.1358   C.2       8 RES8   0.0000
  1122 H100     9.5575  28.0305  20.3218   H         8 RES8   0.0000
  1123 O1      -7.8184  18.2503  18.1311   O.3       9 RES9   0.0000
  1124 H1      -7.0636  18.2932  18.4925   H         9 RES9   0.0000
  1125 O2      -5.9290  18.6279  20.1110   O.3       9 RES9   0.0000
  1126 H2      -6.1008  19.3831  20.4325   H         9 RES9   0.0000
  1127 O3      -8.1058  20.7676  19.2176   O.3       9 RES9   0.0000
  1128 H3A     -8.1173  19.9295  19.2765   H         9 RES9   0.0000
  1129 O4      -5.7176  21.3969  20.5167   O.3       9 RES9   0.0000
  1130 H4      -6.3353  21.3569  19.9497   H         9 RES9   0.0000
  1131 C57     -6.1223  16.4510  20.9419   C.2       9 RES9   0.0000
  1132 C58     -5.6879  17.7526  21.1147   C.2       9 RES9   0.0000
  1133 C66     -8.7598  17.7011  19.0550   C.2       9 RES9   0.0000
  1134 C67    -10.0215  18.1874  19.1303   C.2       9 RES9   0.0000
  1135 C68     -7.9819  22.2122  23.2540   C.2       9 RES9   0.0000
  1136 H68     -8.7317  22.7728  23.4179   H         9 RES9   0.0000
  1137 C70     -9.3279  22.4668  20.3572   C.2       9 RES9   0.0000
  1138 C72     -7.4171  22.1893  22.0138   C.2       9 RES9   0.0000
  1139 C73     -8.3089  16.5941  19.7814   C.2       9 RES9   0.0000
  1140 C74     -5.8266  15.5671  21.8765   C.2       9 RES9   0.0000
  1141 H74     -6.0661  14.6603  21.7259   H         9 RES9   0.0000
  1142 C75    -10.8622  17.6181  20.0029   C.2       9 RES9   0.0000
  1143 H75    -11.7276  17.9957  20.1181   H         9 RES9   0.0000
  1144 C76    -10.4955  20.6904  19.1215   C.2       9 RES9   0.0000
  1145 C78    -10.5368  16.5511  20.7072   C.2       9 RES9   0.0000
  1146 H78    -11.1925  16.1478  21.2653   H         9 RES9   0.0000
  1147 C79     -5.0735  18.1531  22.2397   C.2       9 RES9   0.0000
  1148 C80     -5.1809  15.8789  23.0769   C.2       9 RES9   0.0000
  1149 H80     -4.9893  15.2210  23.7368   H         9 RES9   0.0000
  1150 C82     -9.3163  21.2568  19.5555   C.2       9 RES9   0.0000
  1151 C83     -6.8754  16.0162  19.7327   C.3       9 RES9   0.0000
  1152 H83A    -6.4146  16.3337  18.9177   H         9 RES9   0.0000
  1153 H83B    -6.9150  15.0265  19.7017   H         9 RES9   0.0000
  1154 C86     -8.0760  23.0560  20.8400   C.3       9 RES9   0.0000
  1155 H86A    -7.4352  23.1247  20.0871   H         9 RES9   0.0000
  1156 H86B    -8.2494  23.9743  21.1722   H         9 RES9   0.0000
  1157 C88     -4.8308  17.2634  23.2452   C.2       9 RES9   0.0000
  1158 H88     -4.4294  17.5581  24.0557   H         9 RES9   0.0000
  1159 C89     -5.8019  20.5531  22.7358   C.2       9 RES9   0.0000
  1160 C90     -7.4765  21.4169  24.2905   C.2       9 RES9   0.0000
  1161 H90     -7.8795  21.4513  25.1498   H         9 RES9   0.0000
  1162 C92     -6.2742  21.3655  21.8499   C.2       9 RES9   0.0000
  1163 C93    -10.5897  23.0103  20.6097   C.2       9 RES9   0.0000
  1164 H93    -10.6557  23.7998  21.1324   H         9 RES9   0.0000
  1165 C94     -6.3898  20.5817  24.0735   C.2       9 RES9   0.0000
  1166 H94     -6.0413  20.0410  24.7733   H         9 RES9   0.0000
  1167 C96     -9.2453  15.9848  20.6629   C.2       9 RES9   0.0000
  1168 H96     -9.0108  15.2353  21.1944   H         9 RES9   0.0000
  1169 C97     -4.6161  19.6034  22.5055   C.3       9 RES9   0.0000
  1170 H97A    -4.0859  19.9266  21.7348   H         9 RES9   0.0000
  1171 H97B    -4.0298  19.6177  23.3028   H         9 RES9   0.0000
  1172 C98    -10.4278  19.3717  18.2887   C.3       9 RES9   0.0000
  1173 H98A    -9.7821  19.4832  17.5490   H         9 RES9   0.0000
  1174 H98B   -11.3164  19.1943  17.8857   H         9 RES9   0.0000
  1175 C99    -11.6962  21.2997  19.4005   C.2       9 RES9   0.0000
  1176 H99    -12.5088  20.9221  19.0860   H         9 RES9   0.0000
  1177 C100   -11.7061  22.4496  20.1358   C.2       9 RES9   0.0000
  1178 H100   -12.5385  22.8672  20.3218   H         9 RES9   0.0000
  1179 O1       4.6194  12.7094  18.1311   O.3      10 RES10   0.0000
  1180 H1       4.2048  13.3416  18.4925   H        10 RES10   0.0000
  1181 O2       3.3477  14.1569  20.1110   O.3      10 RES10   0.0000
  1182 H2       2.7795  13.6305  20.4325   H        10 RES10   0.0000
  1183 O3       2.5830  11.2019  19.2176   O.3      10 RES10   0.0000
  1184 H3A      3.3146  11.6110  19.2765   H        10 RES10   0.0000
  1185 O4       0.8439  12.9554  20.5167   O.3      10 RES10   0.0000
  1186 H4       1.1875  12.4405  19.9497   H        10 RES10   0.0000
  1187 C57      5.3295  15.0780  20.9419   C.2      10 RES10   0.0000
  1188 C58      3.9852  14.8034  21.1147   C.2      10 RES10   0.0000
  1189 C66      5.5657  12.1688  19.0550   C.2      10 RES10   0.0000
  1190 C67      5.7754  10.8329  19.1303   C.2      10 RES10   0.0000
  1191 C68      1.2700  10.5869  23.2540   C.2      10 RES10   0.0000
  1192 H68      1.1594   9.6572  23.4179   H        10 RES10   0.0000
  1193 C70      1.7226   9.2939  20.3572   C.2      10 RES10   0.0000
  1194 C72      1.0074  11.0875  22.0138   C.2      10 RES10   0.0000
  1195 C73      6.2990  13.1128  19.7814   C.2      10 RES10   0.0000
  1196 C74      5.9472  15.7759  21.8765   C.2      10 RES10   0.0000
  1197 H74      6.8522  16.0219  21.7259   H        10 RES10   0.0000
  1198 C75      6.6887  10.3895  20.0029   C.2      10 RES10   0.0000
  1199 H75      6.7944   9.4513  20.1181   H        10 RES10   0.0000
  1200 C76      3.8448   9.1709  19.1215   C.2      10 RES10   0.0000
  1201 C78      7.4501  11.2048  20.7072   C.2      10 RES10   0.0000
  1202 H78      8.1272  10.8386  21.2653   H        10 RES10   0.0000
  1203 C79      3.3312  15.1352  22.2397   C.2      10 RES10   0.0000
  1204 C80      5.3543  16.1793  23.0769   C.2      10 RES10   0.0000
  1205 H80      5.8283  16.6742  23.7368   H        10 RES10   0.0000
  1206 C82      2.7647   9.9089  19.5555   C.2      10 RES10   0.0000
  1207 C83      6.0826  14.6432  19.7327   C.3      10 RES10   0.0000
  1208 H83A     5.5773  14.8834  18.9177   H        10 RES10   0.0000
  1209 H83B     6.9596  15.1037  19.7017   H        10 RES10   0.0000
  1210 C86      0.5863  10.0834  20.8400   C.3      10 RES10   0.0000
  1211 H86A     0.2064  10.6041  20.0871   H        10 RES10   0.0000
  1212 H86B    -0.1222   9.4741  21.1722   H        10 RES10   0.0000
  1213 C88      3.9802  15.7902  23.2452   C.2      10 RES10   0.0000
  1214 H88      3.5244  15.9905  24.0557   H        10 RES10   0.0000
  1215 C89      1.6169  13.3044  22.7358   C.2      10 RES10   0.0000
  1216 C90      1.7060  11.4222  24.2905   C.2      10 RES10   0.0000
  1217 H90      1.8778  11.0560  25.1498   H        10 RES10   0.0000
  1218 C92      1.1495  12.4892  21.8499   C.2      10 RES10   0.0000
  1219 C93      1.8828   7.9294  20.6097   C.2      10 RES10   0.0000
  1220 H93      1.2320   7.4775  21.1324   H        10 RES10   0.0000
  1221 C94      1.8861  12.7809  24.0735   C.2      10 RES10   0.0000
  1222 H94      2.1800  13.3531  24.7733   H        10 RES10   0.0000
  1223 C96      7.2949  12.6064  20.6629   C.2      10 RES10   0.0000
  1224 H96      7.8266  13.1843  21.1944   H        10 RES10   0.0000
  1225 C97      1.8464  14.8062  22.5055   C.3      10 RES10   0.0000
  1226 H97A     1.3014  15.1037  21.7348   H        10 RES10   0.0000
  1227 H97B     1.5409  15.3068  23.3028   H        10 RES10   0.0000
  1228 C98      4.9530   9.8889  18.2887   C.3      10 RES10   0.0000
  1229 H98A     4.5335  10.3924  17.5490   H        10 RES10   0.0000
  1230 H98B     5.5508   9.2081  17.8857   H        10 RES10   0.0000
  1231 C99      3.9175   7.8265  19.4005   C.2      10 RES10   0.0000
  1232 H99      4.6507   7.3116  19.0860   H        10 RES10   0.0000
  1233 C100     2.9265   7.2429  20.1358   C.2      10 RES10   0.0000
  1234 H100     2.9810   6.3132  20.3218   H        10 RES10   0.0000
@<TRIPOS>BOND
     1     1     8   un
     2     1    13   un
     3     1    20   un
     4     1    21   un
     5     2     4   un
     6     2    15   un
     7     2   142   un
     8     2   153   un
     9     2   280   un
    10     2   291   un
    11     3     9   un
    12     3    12   un
    13     3   281   un
    14     3   295   un
    15     3   429   un
    16     3   440   un
    17     4    49   un
    18     4    74   un
    19     5    28   un
    20     5    43   un
    21     5   141   un
    22     6     7    1
    23     6    35   un
    24     6    45   un
    25     8    40   un
    26     8    51   un
    27     9    29   un
    28     9    98   un
    29    10    11    1
    30    10    30   un
    31    10    65   un
    32    12    55   un
    33    12    89   un
    34    13    68   un
    35    13    78   un
    36    14    38   un
    37    14    86   un
    38    14   418   un
    39    15    53   un
    40    15   124   un
    41    16    37   un
    42    16    62   un
    43    17    18    1
    44    17    62   un
    45    17    70   un
    46    19    50   un
    47    19   106   un
    48    19   141   un
    49    20    72   un
    50    20   130   un
    51    21    96   un
    52    21   114   un
    53    22    23    1
    54    22    88   un
    55    22   105   un
    56    24    45   un
    57    24    46   un
    58    25    95   un
    59    25   110   un
    60    25   418   un
    61    26    32   un
    62    26    65   un
    63    27    84   un
    64    27   105   un
    65    28    31   un
    66    28    50   un
    67    29    42   un
    68    29    55   un
    69    30    31   un
    70    30    32   un
    71    31    81   un
    72    32    54   un
    73    33    47   un
    74    33    55   un
    75    33    70   un
    76    34    35   un
    77    34    49   un
    78    34    60   un
    79    35    46   un
    80    36    51   un
    81    36    62   un
    82    36    66   un
    83    37    42   un
    84    37    70   un
    85    38    80   un
    86    38    95   un
    87    39    45   un
    88    39    96   un
    89    39   100   un
    90    40    41    1
    91    40    58   un
    92    42    56   un
    93    43    44    1
    94    43    76   un
    95    46    71   un
    96    47    48    1
    97    47    63   un
    98    49    53   un
    99    50    54   un
   100    51    52    1
   101    53    71   un
   102    54   132   un
   103    56    57    1
   104    56   102   un
   105    58    59    1
   106    58    66   un
   107    60    61    1
   108    60    93   un
   109    63    64    1
   110    63    89   un
   111    65    83   un
   112    66    67    1
   113    68    69    1
   114    68   126   un
   115    71   108   un
   116    72    73    1
   117    72    83   un
   118    74    75    1
   119    74    93   un
   120    76    77    1
   121    76    81   un
   122    78    79    1
   123    78    85   un
   124    80    88   un
   125    80   116   un
   126    81    82    1
   127    83   134   un
   128    84    88   un
   129    84   104   un
   130    85   105   un
   131    85   136   un
   132    86    87    1
   133    86    91   un
   134    89    90    1
   135    91    92    1
   136    91   116   un
   137    93    94    1
   138    95   104   un
   139    96    97    1
   140    98    99    1
   141    98   102   un
   142   100   101    1
   143   100   112   un
   144   102   103    1
   145   104   118   un
   146   106   107    1
   147   106   128   un
   148   108   109    1
   149   108   122   un
   150   110   111    1
   151   110   120   un
   152   112   113    1
   153   112   114   un
   154   114   115    1
   155   116   117    1
   156   118   119    1
   157   118   120   un
   158   120   121    1
   159   122   123    1
   160   122   124   un
   161   124   125    1
   162   126   127    1
   163   126   136   un
   164   128   129    1
   165   128   132   un
   166   130   131    1
   167   130   138   un
   168   132   133    1
   169   134   135    1
   170   134   138   un
   171   136   137    1
   172   138   139    1
   173   140   146   un
   174   140   151   un
   175   140   158   un
   176   140   159   un
   177   141   147   un
   178   141   150   un
   179   141   705   un
   180   141   716   un
   181   142   187   un
   182   142   212   un
   183   143   166   un
   184   143   181   un
   185   143   279   un
   186   144   145    1
   187   144   173   un
   188   144   183   un
   189   146   178   un
   190   146   189   un
   191   147   167   un
   192   147   236   un
   193   148   149    1
   194   148   168   un
   195   148   203   un
   196   150   193   un
   197   150   227   un
   198   151   206   un
   199   151   216   un
   200   152   176   un
   201   152   224   un
   202   152   694   un
   203   153   191   un
   204   153   262   un
   205   154   175   un
   206   154   200   un
   207   155   156    1
   208   155   200   un
   209   155   208   un
   210   157   188   un
   211   157   244   un
   212   157   279   un
   213   158   210   un
   214   158   268   un
   215   159   234   un
   216   159   252   un
   217   160   161    1
   218   160   226   un
   219   160   243   un
   220   162   183   un
   221   162   184   un
   222   163   233   un
   223   163   248   un
   224   163   694   un
   225   164   170   un
   226   164   203   un
   227   165   222   un
   228   165   243   un
   229   166   169   un
   230   166   188   un
   231   167   180   un
   232   167   193   un
   233   168   169   un
   234   168   170   un
   235   169   219   un
   236   170   192   un
   237   171   185   un
   238   171   193   un
   239   171   208   un
   240   172   173   un
   241   172   187   un
   242   172   198   un
   243   173   184   un
   244   174   189   un
   245   174   200   un
   246   174   204   un
   247   175   180   un
   248   175   208   un
   249   176   218   un
   250   176   233   un
   251   177   183   un
   252   177   234   un
   253   177   238   un
   254   178   179    1
   255   178   196   un
   256   180   194   un
   257   181   182    1
   258   181   214   un
   259   184   209   un
   260   185   186    1
   261   185   201   un
   262   187   191   un
   263   188   192   un
   264   189   190    1
   265   191   209   un
   266   192   270   un
   267   194   195    1
   268   194   240   un
   269   196   197    1
   270   196   204   un
   271   198   199    1
   272   198   231   un
   273   201   202    1
   274   201   227   un
   275   203   221   un
   276   204   205    1
   277   206   207    1
   278   206   264   un
   279   209   246   un
   280   210   211    1
   281   210   221   un
   282   212   213    1
   283   212   231   un
   284   214   215    1
   285   214   219   un
   286   216   217    1
   287   216   223   un
   288   218   226   un
   289   218   254   un
   290   219   220    1
   291   221   272   un
   292   222   226   un
   293   222   242   un
   294   223   243   un
   295   223   274   un
   296   224   225    1
   297   224   229   un
   298   227   228    1
   299   229   230    1
   300   229   254   un
   301   231   232    1
   302   233   242   un
   303   234   235    1
   304   236   237    1
   305   236   240   un
   306   238   239    1
   307   238   250   un
   308   240   241    1
   309   242   256   un
   310   244   245    1
   311   244   266   un
   312   246   247    1
   313   246   260   un
   314   248   249    1
   315   248   258   un
   316   250   251    1
   317   250   252   un
   318   252   253    1
   319   254   255    1
   320   256   257    1
   321   256   258   un
   322   258   259    1
   323   260   261    1
   324   260   262   un
   325   262   263    1
   326   264   265    1
   327   264   274   un
   328   266   267    1
   329   266   270   un
   330   268   269    1
   331   268   276   un
   332   270   271    1
   333   272   273    1
   334   272   276   un
   335   274   275    1
   336   276   277    1
   337   278   284   un
   338   278   289   un
   339   278   296   un
   340   278   297   un
   341   279   285   un
   342   279   288   un
   343   279   567   un
   344   279   578   un
   345   280   325   un
   346   280   350   un
   347   281   304   un
   348   281   319   un
   349   282   283    1
   350   282   311   un
   351   282   321   un
   352   284   316   un
   353   284   327   un
   354   285   305   un
   355   285   374   un
   356   286   287    1
   357   286   306   un
   358   286   341   un
   359   288   331   un
   360   288   365   un
   361   289   344   un
   362   289   354   un
   363   290   314   un
   364   290   362   un
   365   290   556   un
   366   291   329   un
   367   291   400   un
   368   292   313   un
   369   292   338   un
   370   293   294    1
   371   293   338   un
   372   293   346   un
   373   295   326   un
   374   295   382   un
   375   296   348   un
   376   296   406   un
   377   297   372   un
   378   297   390   un
   379   298   299    1
   380   298   364   un
   381   298   381   un
   382   300   321   un
   383   300   322   un
   384   301   371   un
   385   301   386   un
   386   301   556   un
   387   302   308   un
   388   302   341   un
   389   303   360   un
   390   303   381   un
   391   304   307   un
   392   304   326   un
   393   305   318   un
   394   305   331   un
   395   306   307   un
   396   306   308   un
   397   307   357   un
   398   308   330   un
   399   309   323   un
   400   309   331   un
   401   309   346   un
   402   310   311   un
   403   310   325   un
   404   310   336   un
   405   311   322   un
   406   312   327   un
   407   312   338   un
   408   312   342   un
   409   313   318   un
   410   313   346   un
   411   314   356   un
   412   314   371   un
   413   315   321   un
   414   315   372   un
   415   315   376   un
   416   316   317    1
   417   316   334   un
   418   318   332   un
   419   319   320    1
   420   319   352   un
   421   322   347   un
   422   323   324    1
   423   323   339   un
   424   325   329   un
   425   326   330   un
   426   327   328    1
   427   329   347   un
   428   330   408   un
   429   332   333    1
   430   332   378   un
   431   334   335    1
   432   334   342   un
   433   336   337    1
   434   336   369   un
   435   339   340    1
   436   339   365   un
   437   341   359   un
   438   342   343    1
   439   344   345    1
   440   344   402   un
   441   347   384   un
   442   348   349    1
   443   348   359   un
   444   350   351    1
   445   350   369   un
   446   352   353    1
   447   352   357   un
   448   354   355    1
   449   354   361   un
   450   356   364   un
   451   356   392   un
   452   357   358    1
   453   359   410   un
   454   360   364   un
   455   360   380   un
   456   361   381   un
   457   361   412   un
   458   362   363    1
   459   362   367   un
   460   365   366    1
   461   367   368    1
   462   367   392   un
   463   369   370    1
   464   371   380   un
   465   372   373    1
   466   374   375    1
   467   374   378   un
   468   376   377    1
   469   376   388   un
   470   378   379    1
   471   380   394   un
   472   382   383    1
   473   382   404   un
   474   384   385    1
   475   384   398   un
   476   386   387    1
   477   386   396   un
   478   388   389    1
   479   388   390   un
   480   390   391    1
   481   392   393    1
   482   394   395    1
   483   394   396   un
   484   396   397    1
   485   398   399    1
   486   398   400   un
   487   400   401    1
   488   402   403    1
   489   402   412   un
   490   404   405    1
   491   404   408   un
   492   406   407    1
   493   406   414   un
   494   408   409    1
   495   410   411    1
   496   410   414   un
   497   412   413    1
   498   414   415    1
   499   416   423   un
   500   416   428   un
   501   416   435   un
   502   416   436   un
   503   417   419   un
   504   417   430   un
   505   417   557   un
   506   417   568   un
   507   417   695   un
   508   417   706   un
   509   418   424   un
   510   418   427   un
   511   418   696   un
   512   418   710   un
   513   419   464   un
   514   419   489   un
   515   420   443   un
   516   420   458   un
   517   420   556   un
   518   421   422    1
   519   421   450   un
   520   421   460   un
   521   423   455   un
   522   423   466   un
   523   424   444   un
   524   424   513   un
   525   425   426    1
   526   425   445   un
   527   425   480   un
   528   427   470   un
   529   427   504   un
   530   428   483   un
   531   428   493   un
   532   429   453   un
   533   429   501   un
   534   430   468   un
   535   430   539   un
   536   431   452   un
   537   431   477   un
   538   432   433    1
   539   432   477   un
   540   432   485   un
   541   434   465   un
   542   434   521   un
   543   434   556   un
   544   435   487   un
   545   435   545   un
   546   436   511   un
   547   436   529   un
   548   437   438    1
   549   437   503   un
   550   437   520   un
   551   439   460   un
   552   439   461   un
   553   440   510   un
   554   440   525   un
   555   441   447   un
   556   441   480   un
   557   442   499   un
   558   442   520   un
   559   443   446   un
   560   443   465   un
   561   444   457   un
   562   444   470   un
   563   445   446   un
   564   445   447   un
   565   446   496   un
   566   447   469   un
   567   448   462   un
   568   448   470   un
   569   448   485   un
   570   449   450   un
   571   449   464   un
   572   449   475   un
   573   450   461   un
   574   451   466   un
   575   451   477   un
   576   451   481   un
   577   452   457   un
   578   452   485   un
   579   453   495   un
   580   453   510   un
   581   454   460   un
   582   454   511   un
   583   454   515   un
   584   455   456    1
   585   455   473   un
   586   457   471   un
   587   458   459    1
   588   458   491   un
   589   461   486   un
   590   462   463    1
   591   462   478   un
   592   464   468   un
   593   465   469   un
   594   466   467    1
   595   468   486   un
   596   469   547   un
   597   471   472    1
   598   471   517   un
   599   473   474    1
   600   473   481   un
   601   475   476    1
   602   475   508   un
   603   478   479    1
   604   478   504   un
   605   480   498   un
   606   481   482    1
   607   483   484    1
   608   483   541   un
   609   486   523   un
   610   487   488    1
   611   487   498   un
   612   489   490    1
   613   489   508   un
   614   491   492    1
   615   491   496   un
   616   493   494    1
   617   493   500   un
   618   495   503   un
   619   495   531   un
   620   496   497    1
   621   498   549   un
   622   499   503   un
   623   499   519   un
   624   500   520   un
   625   500   551   un
   626   501   502    1
   627   501   506   un
   628   504   505    1
   629   506   507    1
   630   506   531   un
   631   508   509    1
   632   510   519   un
   633   511   512    1
   634   513   514    1
   635   513   517   un
   636   515   516    1
   637   515   527   un
   638   517   518    1
   639   519   533   un
   640   521   522    1
   641   521   543   un
   642   523   524    1
   643   523   537   un
   644   525   526    1
   645   525   535   un
   646   527   528    1
   647   527   529   un
   648   529   530    1
   649   531   532    1
   650   533   534    1
   651   533   535   un
   652   535   536    1
   653   537   538    1
   654   537   539   un
   655   539   540    1
   656   541   542    1
   657   541   551   un
   658   543   544    1
   659   543   547   un
   660   545   546    1
   661   545   553   un
   662   547   548    1
   663   549   550    1
   664   549   553   un
   665   551   552    1
   666   553   554    1
   667   555   561   un
   668   555   566   un
   669   555   573   un
   670   555   574   un
   671   556   562   un
   672   556   565   un
   673   557   602   un
   674   557   627   un
   675   558   581   un
   676   558   596   un
   677   558   694   un
   678   559   560    1
   679   559   588   un
   680   559   598   un
   681   561   593   un
   682   561   604   un
   683   562   582   un
   684   562   651   un
   685   563   564    1
   686   563   583   un
   687   563   618   un
   688   565   608   un
   689   565   642   un
   690   566   621   un
   691   566   631   un
   692   567   591   un
   693   567   639   un
   694   568   606   un
   695   568   677   un
   696   569   590   un
   697   569   615   un
   698   570   571    1
   699   570   615   un
   700   570   623   un
   701   572   603   un
   702   572   659   un
   703   572   694   un
   704   573   625   un
   705   573   683   un
   706   574   649   un
   707   574   667   un
   708   575   576    1
   709   575   641   un
   710   575   658   un
   711   577   598   un
   712   577   599   un
   713   578   648   un
   714   578   663   un
   715   579   585   un
   716   579   618   un
   717   580   637   un
   718   580   658   un
   719   581   584   un
   720   581   603   un
   721   582   595   un
   722   582   608   un
   723   583   584   un
   724   583   585   un
   725   584   634   un
   726   585   607   un
   727   586   600   un
   728   586   608   un
   729   586   623   un
   730   587   588   un
   731   587   602   un
   732   587   613   un
   733   588   599   un
   734   589   604   un
   735   589   615   un
   736   589   619   un
   737   590   595   un
   738   590   623   un
   739   591   633   un
   740   591   648   un
   741   592   598   un
   742   592   649   un
   743   592   653   un
   744   593   594    1
   745   593   611   un
   746   595   609   un
   747   596   597    1
   748   596   629   un
   749   599   624   un
   750   600   601    1
   751   600   616   un
   752   602   606   un
   753   603   607   un
   754   604   605    1
   755   606   624   un
   756   607   685   un
   757   609   610    1
   758   609   655   un
   759   611   612    1
   760   611   619   un
   761   613   614    1
   762   613   646   un
   763   616   617    1
   764   616   642   un
   765   618   636   un
   766   619   620    1
   767   621   622    1
   768   621   679   un
   769   624   661   un
   770   625   626    1
   771   625   636   un
   772   627   628    1
   773   627   646   un
   774   629   630    1
   775   629   634   un
   776   631   632    1
   777   631   638   un
   778   633   641   un
   779   633   669   un
   780   634   635    1
   781   636   687   un
   782   637   641   un
   783   637   657   un
   784   638   658   un
   785   638   689   un
   786   639   640    1
   787   639   644   un
   788   642   643    1
   789   644   645    1
   790   644   669   un
   791   646   647    1
   792   648   657   un
   793   649   650    1
   794   651   652    1
   795   651   655   un
   796   653   654    1
   797   653   665   un
   798   655   656    1
   799   657   671   un
   800   659   660    1
   801   659   681   un
   802   661   662    1
   803   661   675   un
   804   663   664    1
   805   663   673   un
   806   665   666    1
   807   665   667   un
   808   667   668    1
   809   669   670    1
   810   671   672    1
   811   671   673   un
   812   673   674    1
   813   675   676    1
   814   675   677   un
   815   677   678    1
   816   679   680    1
   817   679   689   un
   818   681   682    1
   819   681   685   un
   820   683   684    1
   821   683   691   un
   822   685   686    1
   823   687   688    1
   824   687   691   un
   825   689   690    1
   826   691   692    1
   827   693   699   un
   828   693   704   un
   829   693   711   un
   830   693   712   un
   831   694   700   un
   832   694   703   un
   833   695   740   un
   834   695   765   un
   835   696   719   un
   836   696   734   un
   837   697   698    1
   838   697   726   un
   839   697   736   un
   840   699   731   un
   841   699   742   un
   842   700   720   un
   843   700   789   un
   844   701   702    1
   845   701   721   un
   846   701   756   un
   847   703   746   un
   848   703   780   un
   849   704   759   un
   850   704   769   un
   851   705   729   un
   852   705   777   un
   853   706   744   un
   854   706   815   un
   855   707   728   un
   856   707   753   un
   857   708   709    1
   858   708   753   un
   859   708   761   un
   860   710   741   un
   861   710   797   un
   862   711   763   un
   863   711   821   un
   864   712   787   un
   865   712   805   un
   866   713   714    1
   867   713   779   un
   868   713   796   un
   869   715   736   un
   870   715   737   un
   871   716   786   un
   872   716   801   un
   873   717   723   un
   874   717   756   un
   875   718   775   un
   876   718   796   un
   877   719   722   un
   878   719   741   un
   879   720   733   un
   880   720   746   un
   881   721   722   un
   882   721   723   un
   883   722   772   un
   884   723   745   un
   885   724   738   un
   886   724   746   un
   887   724   761   un
   888   725   726   un
   889   725   740   un
   890   725   751   un
   891   726   737   un
   892   727   742   un
   893   727   753   un
   894   727   757   un
   895   728   733   un
   896   728   761   un
   897   729   771   un
   898   729   786   un
   899   730   736   un
   900   730   787   un
   901   730   791   un
   902   731   732    1
   903   731   749   un
   904   733   747   un
   905   734   735    1
   906   734   767   un
   907   737   762   un
   908   738   739    1
   909   738   754   un
   910   740   744   un
   911   741   745   un
   912   742   743    1
   913   744   762   un
   914   745   823   un
   915   747   748    1
   916   747   793   un
   917   749   750    1
   918   749   757   un
   919   751   752    1
   920   751   784   un
   921   754   755    1
   922   754   780   un
   923   756   774   un
   924   757   758    1
   925   759   760    1
   926   759   817   un
   927   762   799   un
   928   763   764    1
   929   763   774   un
   930   765   766    1
   931   765   784   un
   932   767   768    1
   933   767   772   un
   934   769   770    1
   935   769   776   un
   936   771   779   un
   937   771   807   un
   938   772   773    1
   939   774   825   un
   940   775   779   un
   941   775   795   un
   942   776   796   un
   943   776   827   un
   944   777   778    1
   945   777   782   un
   946   780   781    1
   947   782   783    1
   948   782   807   un
   949   784   785    1
   950   786   795   un
   951   787   788    1
   952   789   790    1
   953   789   793   un
   954   791   792    1
   955   791   803   un
   956   793   794    1
   957   795   809   un
   958   797   798    1
   959   797   819   un
   960   799   800    1
   961   799   813   un
   962   801   802    1
   963   801   811   un
   964   803   804    1
   965   803   805   un
   966   805   806    1
   967   807   808    1
   968   809   810    1
   969   809   811   un
   970   811   812    1
   971   813   814    1
   972   813   815   un
   973   815   816    1
   974   817   818    1
   975   817   827   un
   976   819   820    1
   977   819   823   un
   978   821   822    1
   979   821   829   un
   980   823   824    1
   981   825   826    1
   982   825   829   un
   983   827   828    1
   984   829   830    1
   985   831   832    1
   986   831   833    1
   987   831   834    1
   988   831   835    1
   989   831   836    1
   990   831   837    1
   991   838   842    1
   992   839   842    1
   993   840   842    1
   994   841   842    1
   995   843   844    1
   996   843   853    1
   997   845   846    1
   998   845   852    1
   999   847   848    1
  1000   847   870    1
  1001   849   850    1
  1002   849   882    1
  1003   851   852   un
  1004   851   860   un
  1005   851   871    1
  1006   852   867   un
  1007   853   854   un
  1008   853   859   un
  1009   854   862   un
  1010   854   892    1
  1011   855   856    1
  1012   855   858   un
  1013   855   880   un
  1014   857   870   un
  1015   857   874    1
  1016   857   883   un
  1017   858   874    1
  1018   858   882   un
  1019   859   871    1
  1020   859   887   un
  1021   860   861    1
  1022   860   868   un
  1023   862   863    1
  1024   862   865   un
  1025   864   870   un
  1026   864   892    1
  1027   864   895   un
  1028   865   866    1
  1029   865   887   un
  1030   867   877   un
  1031   867   889    1
  1032   868   869    1
  1033   868   877   un
  1034   871   872    1
  1035   871   873    1
  1036   874   875    1
  1037   874   876    1
  1038   877   878    1
  1039   879   882   un
  1040   879   885   un
  1041   879   889    1
  1042   880   881    1
  1043   880   885   un
  1044   883   884    1
  1045   883   897   un
  1046   885   886    1
  1047   887   888    1
  1048   889   890    1
  1049   889   891    1
  1050   892   893    1
  1051   892   894    1
  1052   895   896    1
  1053   895   897   un
  1054   897   898    1
  1055   899   900    1
  1056   899   909    1
  1057   901   902    1
  1058   901   908    1
  1059   903   904    1
  1060   903   926    1
  1061   905   906    1
  1062   905   938    1
  1063   907   908   un
  1064   907   916   un
  1065   907   927    1
  1066   908   923   un
  1067   909   910   un
  1068   909   915   un
  1069   910   918   un
  1070   910   948    1
  1071   911   912    1
  1072   911   914   un
  1073   911   936   un
  1074   913   926   un
  1075   913   930    1
  1076   913   939   un
  1077   914   930    1
  1078   914   938   un
  1079   915   927    1
  1080   915   943   un
  1081   916   917    1
  1082   916   924   un
  1083   918   919    1
  1084   918   921   un
  1085   920   926   un
  1086   920   948    1
  1087   920   951   un
  1088   921   922    1
  1089   921   943   un
  1090   923   933   un
  1091   923   945    1
  1092   924   925    1
  1093   924   933   un
  1094   927   928    1
  1095   927   929    1
  1096   930   931    1
  1097   930   932    1
  1098   933   934    1
  1099   935   938   un
  1100   935   941   un
  1101   935   945    1
  1102   936   937    1
  1103   936   941   un
  1104   939   940    1
  1105   939   953   un
  1106   941   942    1
  1107   943   944    1
  1108   945   946    1
  1109   945   947    1
  1110   948   949    1
  1111   948   950    1
  1112   951   952    1
  1113   951   953   un
  1114   953   954    1
  1115   955   956    1
  1116   955   965    1
  1117   957   958    1
  1118   957   964    1
  1119   959   960    1
  1120   959   982    1
  1121   961   962    1
  1122   961   994    1
  1123   963   964   un
  1124   963   972   un
  1125   963   983    1
  1126   964   979   un
  1127   965   966   un
  1128   965   971   un
  1129   966   974   un
  1130   966  1004    1
  1131   967   968    1
  1132   967   970   un
  1133   967   992   un
  1134   969   982   un
  1135   969   986    1
  1136   969   995   un
  1137   970   986    1
  1138   970   994   un
  1139   971   983    1
  1140   971   999   un
  1141   972   973    1
  1142   972   980   un
  1143   974   975    1
  1144   974   977   un
  1145   976   982   un
  1146   976  1004    1
  1147   976  1007   un
  1148   977   978    1
  1149   977   999   un
  1150   979   989   un
  1151   979  1001    1
  1152   980   981    1
  1153   980   989   un
  1154   983   984    1
  1155   983   985    1
  1156   986   987    1
  1157   986   988    1
  1158   989   990    1
  1159   991   994   un
  1160   991   997   un
  1161   991  1001    1
  1162   992   993    1
  1163   992   997   un
  1164   995   996    1
  1165   995  1009   un
  1166   997   998    1
  1167   999  1000    1
  1168  1001  1002    1
  1169  1001  1003    1
  1170  1004  1005    1
  1171  1004  1006    1
  1172  1007  1008    1
  1173  1007  1009   un
  1174  1009  1010    1
  1175  1011  1012    1
  1176  1011  1021    1
  1177  1013  1014    1
  1178  1013  1020    1
  1179  1015  1016    1
  1180  1015  1038    1
  1181  1017  1018    1
  1182  1017  1050    1
  1183  1019  1020   un
  1184  1019  1028   un
  1185  1019  1039    1
  1186  1020  1035   un
  1187  1021  1022   un
  1188  1021  1027   un
  1189  1022  1030   un
  1190  1022  1060    1
  1191  1023  1024    1
  1192  1023  1026   un
  1193  1023  1048   un
  1194  1025  1038   un
  1195  1025  1042    1
  1196  1025  1051   un
  1197  1026  1042    1
  1198  1026  1050   un
  1199  1027  1039    1
  1200  1027  1055   un
  1201  1028  1029    1
  1202  1028  1036   un
  1203  1030  1031    1
  1204  1030  1033   un
  1205  1032  1038   un
  1206  1032  1060    1
  1207  1032  1063   un
  1208  1033  1034    1
  1209  1033  1055   un
  1210  1035  1045   un
  1211  1035  1057    1
  1212  1036  1037    1
  1213  1036  1045   un
  1214  1039  1040    1
  1215  1039  1041    1
  1216  1042  1043    1
  1217  1042  1044    1
  1218  1045  1046    1
  1219  1047  1050   un
  1220  1047  1053   un
  1221  1047  1057    1
  1222  1048  1049    1
  1223  1048  1053   un
  1224  1051  1052    1
  1225  1051  1065   un
  1226  1053  1054    1
  1227  1055  1056    1
  1228  1057  1058    1
  1229  1057  1059    1
  1230  1060  1061    1
  1231  1060  1062    1
  1232  1063  1064    1
  1233  1063  1065   un
  1234  1065  1066    1
  1235  1067  1068    1
  1236  1067  1077    1
  1237  1069  1070    1
  1238  1069  1076    1
  1239  1071  1072    1
  1240  1071  1094    1
  1241  1073  1074    1
  1242  1073  1106    1
  1243  1075  1076   un
  1244  1075  1084   un
  1245  1075  1095    1
  1246  1076  1091   un
  1247  1077  1078   un
  1248  1077  1083   un
  1249  1078  1086   un
  1250  1078  1116    1
  1251  1079  1080    1
  1252  1079  1082   un
  1253  1079  1104   un
  1254  1081  1094   un
  1255  1081  1098    1
  1256  1081  1107   un
  1257  1082  1098    1
  1258  1082  1106   un
  1259  1083  1095    1
  1260  1083  1111   un
  1261  1084  1085    1
  1262  1084  1092   un
  1263  1086  1087    1
  1264  1086  1089   un
  1265  1088  1094   un
  1266  1088  1116    1
  1267  1088  1119   un
  1268  1089  1090    1
  1269  1089  1111   un
  1270  1091  1101   un
  1271  1091  1113    1
  1272  1092  1093    1
  1273  1092  1101   un
  1274  1095  1096    1
  1275  1095  1097    1
  1276  1098  1099    1
  1277  1098  1100    1
  1278  1101  1102    1
  1279  1103  1106   un
  1280  1103  1109   un
  1281  1103  1113    1
  1282  1104  1105    1
  1283  1104  1109   un
  1284  1107  1108    1
  1285  1107  1121   un
  1286  1109  1110    1
  1287  1111  1112    1
  1288  1113  1114    1
  1289  1113  1115    1
  1290  1116  1117    1
  1291  1116  1118    1
  1292  1119  1120    1
  1293  1119  1121   un
  1294  1121  1122    1
  1295  1123  1124    1
  1296  1123  1133    1
  1297  1125  1126    1
  1298  1125  1132    1
  1299  1127  1128    1
  1300  1127  1150    1
  1301  1129  1130    1
  1302  1129  1162    1
  1303  1131  1132   un
  1304  1131  1140   un
  1305  1131  1151    1
  1306  1132  1147   un
  1307  1133  1134   un
  1308  1133  1139   un
  1309  1134  1142   un
  1310  1134  1172    1
  1311  1135  1136    1
  1312  1135  1138   un
  1313  1135  1160   un
  1314  1137  1150   un
  1315  1137  1154    1
  1316  1137  1163   un
  1317  1138  1154    1
  1318  1138  1162   un
  1319  1139  1151    1
  1320  1139  1167   un
  1321  1140  1141    1
  1322  1140  1148   un
  1323  1142  1143    1
  1324  1142  1145   un
  1325  1144  1150   un
  1326  1144  1172    1
  1327  1144  1175   un
  1328  1145  1146    1
  1329  1145  1167   un
  1330  1147  1157   un
  1331  1147  1169    1
  1332  1148  1149    1
  1333  1148  1157   un
  1334  1151  1152    1
  1335  1151  1153    1
  1336  1154  1155    1
  1337  1154  1156    1
  1338  1157  1158    1
  1339  1159  1162   un
  1340  1159  1165   un
  1341  1159  1169    1
  1342  1160  1161    1
  1343  1160  1165   un
  1344  1163  1164    1
  1345  1163  1177   un
  1346  1165  1166    1
  1347  1167  1168    1
  1348  1169  1170    1
  1349  1169  1171    1
  1350  1172  1173    1
  1351  1172  1174    1
  1352  1175  1176    1
  1353  1175  1177   un
  1354  1177  1178    1
  1355  1179  1180    1
  1356  1179  1189    1
  1357  1181  1182    1
  1358  1181  1188    1
  1359  1183  1184    1
  1360  1183  1206    1
  1361  1185  1186    1
  1362  1185  1218    1
  1363  1187  1188   un
  1364  1187  1196   un
  1365  1187  1207    1
  1366  1188  1203   un
  1367  1189  1190   un
  1368  1189  1195   un
  1369  1190  1198   un
  1370  1190  1228    1
  1371  1191  1192    1
  1372  1191  1194   un
  1373  1191  1216   un
  1374  1193  1206   un
  1375  1193  1210    1
  1376  1193  1219   un
  1377  1194  1210    1
  1378  1194  1218   un
  1379  1195  1207    1
  1380  1195  1223   un
  1381  1196  1197    1
  1382  1196  1204   un
  1383  1198  1199    1
  1384  1198  1201   un
  1385  1200  1206   un
  1386  1200  1228    1
  1387  1200  1231   un
  1388  1201  1202    1
  1389  1201  1223   un
  1390  1203  1213   un
  1391  1203  1225    1
  1392  1204  1205    1
  1393  1204  1213   un
  1394  1207  1208    1
  1395  1207  1209    1
  1396  1210  1211    1
  1397  1210  1212    1
  1398  1213  1214    1
  1399  1215  1218   un
  1400  1215  1221   un
  1401  1215  1225    1
  1402  1216  1217    1
  1403  1216  1221   un
  1404  1219  1220    1
  1405  1219  1233   un
  1406  1221  1222    1
  1407  1223  1224    1
  1408  1225  1226    1
  1409  1225  1227    1
  1410  1228  1229    1
  1411  1228  1230    1
  1412  1231  1232    1
  1413  1231  1233   un
  1414  1233  1234    1
@<TRIPOS>SUBSTRUCTURE
     1 RES1        1 GROUP             0 ****  ****    0  
     2 RES2      831 GROUP             0 ****  ****    0  
     3 RES3      838 GROUP             0 ****  ****    0  
     4 RES4      843 GROUP             0 ****  ****    0  
     5 RES5      899 GROUP             0 ****  ****    0  
     6 RES6      955 GROUP             0 ****  ****    0  
     7 RES7     1011 GROUP             0 ****  ****    0  
     8 RES8     1067 GROUP             0 ****  ****    0  
     9 RES9     1123 GROUP             0 ****  ****    0  
    10 RES10    1179 GROUP             0 ****  ****    0  
@<TRIPOS>CRYSIN
   33.0308   33.0308   44.2934   90.0000   90.0000  120.0000   163     1
