@<TRIPOS>MOLECULE
delta_moc_68_cb10
  1309  1494    14     0     0
SMALL
NO_CHARGES
****
Generated from the CSD

@<TRIPOS>ATOM
     1 B1      17.1949  22.9269  17.7972   B         1 RES1   0.0000
     2 F1      18.1298  23.5600  18.5340   F         1 RES1   0.0000
     3 F2      16.5973  22.1749  18.6907   F         1 RES1   0.0000
     4 F1      16.2599  23.5600  17.0604   F         1 RES1   0.0000
     5 F2      17.7924  22.1749  16.9038   F         1 RES1   0.0000
     6 Ru1     12.6074  26.3639  18.4507   Ru.oh     2 RES2   0.0000
     7 Ru2     17.9970  19.5454  22.3761   Ru.oh     2 RES2   0.0000
     8 C1C     18.7572  31.6824  32.7647   C.3       2 RES2   0.0000
     9 H1CA    18.5707  32.4197  33.3947   H         2 RES2   0.0000
    10 H1CB    19.2523  30.9791  33.2559   H         2 RES2   0.0000
    11 C2C     17.3564  31.0685  32.2450   C.3       2 RES2   0.0000
    12 H2CA    16.8432  30.7038  33.0068   H         2 RES2   0.0000
    13 H2CB    16.8137  31.7774  31.8179   H         2 RES2   0.0000
    14 C3C     16.3834  29.2310  30.8746   C.3       2 RES2   0.0000
    15 H3CA    16.0102  28.7813  31.6755   H         2 RES2   0.0000
    16 H3CB    15.7046  29.8641  30.5365   H         2 RES2   0.0000
    17 C4C     16.6621  28.2207  29.8388   C.2       2 RES2   0.0000
    18 C5C     17.0533  26.9309  30.3051   C.2       2 RES2   0.0000
    19 H5C     17.1142  26.7717  31.2377   H         2 RES2   0.0000
    20 C6C     17.3434  25.8995  29.4135   C.2       2 RES2   0.0000
    21 H6C     17.6153  25.0466  29.7285   H         2 RES2   0.0000
    22 C7C     17.2274  26.1422  28.0876   C.2       2 RES2   0.0000
    23 C8C     16.8801  27.3677  27.5964   C.2       2 RES2   0.0000
    24 H8C     16.8437  27.5196  26.6603   H         2 RES2   0.0000
    25 C9C     16.5572  28.4515  28.5503   C.2       2 RES2   0.0000
    26 H9C     16.2755  29.3044  28.2335   H         2 RES2   0.0000
    27 C10C    17.4385  25.0677  27.0532   C.2       2 RES2   0.0000
    28 C11C    17.8293  23.8931  25.2920   C.2       2 RES2   0.0000
    29 C12C    17.3903  23.0375  26.1915   C.2       2 RES2   0.0000
    30 C13C    17.0790  21.6271  25.9786   C.2       2 RES2   0.0000
    31 C14C    16.5126  20.7471  26.7852   C.2       2 RES2   0.0000
    32 H14C    16.2621  20.9953  27.6676   H         2 RES2   0.0000
    33 C15C    16.2926  19.4803  26.3424   C.2       2 RES2   0.0000
    34 H15C    15.8504  18.8526  26.9023   H         2 RES2   0.0000
    35 C16C    16.7062  19.1123  25.0952   C.2       2 RES2   0.0000
    36 H16C    16.5856  18.2057  24.8343   H         2 RES2   0.0000
    37 C17C    17.4593  21.2302  24.6940   C.2       2 RES2   0.0000
    38 C18C    18.0497  22.1382  23.7358   C.2       2 RES2   0.0000
    39 C19C    18.2387  23.4898  23.9711   C.2       2 RES2   0.0000
    40 C20C    18.8038  24.2515  23.0232   C.2       2 RES2   0.0000
    41 H20C    18.9570  25.1751  23.1934   H         2 RES2   0.0000
    42 C21C    19.1692  23.6995  21.7820   C.2       2 RES2   0.0000
    43 H21C    19.5496  24.2299  21.0933   H         2 RES2   0.0000
    44 C22C    18.9490  22.3534  21.6158   C.2       2 RES2   0.0000
    45 H22C    19.2190  21.9726  20.7872   H         2 RES2   0.0000
    46 C23C    19.2398  33.5424  31.3125   C.3       2 RES2   0.0000
    47 H23A    19.7447  34.1770  31.8820   H         2 RES2   0.0000
    48 H23B    18.2755  33.6952  31.4726   H         2 RES2   0.0000
    49 C24C    19.5523  33.8420  29.8317   C.3       2 RES2   0.0000
    50 H24A    19.4638  34.8147  29.6644   H         2 RES2   0.0000
    51 H24B    20.4857  33.5805  29.6324   H         2 RES2   0.0000
    52 C25C    18.8478  33.4599  27.4825   C.3       2 RES2   0.0000
    53 H25A    19.8093  33.3603  27.2725   H         2 RES2   0.0000
    54 H25B    18.6022  34.4110  27.3437   H         2 RES2   0.0000
    55 C26C    18.6202  31.5117  25.9840   C.2       2 RES2   0.0000
    56 H26C    19.5092  31.3140  26.2438   H         2 RES2   0.0000
    57 C27C    18.0171  32.5670  26.5072   C.2       2 RES2   0.0000
    58 C28C    16.7931  32.7854  26.2723   C.2       2 RES2   0.0000
    59 H28C    16.3582  33.4933  26.7314   H         2 RES2   0.0000
    60 C29C    16.0350  32.0063  25.3397   C.2       2 RES2   0.0000
    61 H29C    15.1383  32.2316  25.1333   H         2 RES2   0.0000
    62 C30C    16.6460  30.9107  24.7453   C.2       2 RES2   0.0000
    63 C31C    17.9705  30.6533  25.0300   C.2       2 RES2   0.0000
    64 H31C    18.4362  29.9375  24.6136   H         2 RES2   0.0000
    65 C32C    16.0052  30.2101  23.6418   C.2       2 RES2   0.0000
    66 C33C    15.3693  28.5350  22.3846   C.2       2 RES2   0.0000
    67 C34C    14.6724  29.6434  21.9127   C.2       2 RES2   0.0000
    68 C35C    13.8377  29.6944  20.8730   C.2       2 RES2   0.0000
    69 C36C    13.1379  30.8079  20.3800   C.2       2 RES2   0.0000
    70 H36C    13.2157  31.6581  20.7978   H         2 RES2   0.0000
    71 C37C    12.3170  30.6285  19.2431   C.2       2 RES2   0.0000
    72 H37C    11.8359  31.3736  18.9007   H         2 RES2   0.0000
    73 C38C    12.1934  29.4273  18.6244   C.2       2 RES2   0.0000
    74 H38C    11.6617  29.3594  17.8399   H         2 RES2   0.0000
    75 C39C    13.6202  28.4303  20.1589   C.2       2 RES2   0.0000
    76 C40C    14.2564  27.2893  20.6597   C.2       2 RES2   0.0000
    77 C41C    15.1541  27.2728  21.7347   C.2       2 RES2   0.0000
    78 C42C    15.7943  26.0468  22.0668   C.2       2 RES2   0.0000
    79 H42C    16.4246  26.0376  22.7769   H         2 RES2   0.0000
    80 C43C    15.5347  24.8901  21.4022   C.2       2 RES2   0.0000
    81 H43C    15.9234  24.0602  21.6628   H         2 RES2   0.0000
    82 C44C    14.6478  24.9943  20.2967   C.2       2 RES2   0.0000
    83 H44C    14.5122  24.2162  19.7692   H         2 RES2   0.0000
    84 C45C    20.9851  32.0637  31.9354   C.3       2 RES2   0.0000
    85 H45A    21.1995  32.3647  32.8537   H         2 RES2   0.0000
    86 H45B    21.4606  32.6537  31.3018   H         2 RES2   0.0000
    87 C46C    21.4793  30.5574  31.7360   C.3       2 RES2   0.0000
    88 H46A    22.4021  30.4422  32.0742   H         2 RES2   0.0000
    89 H46B    20.8838  29.9238  32.2094   H         2 RES2   0.0000
    90 C47C    21.7721  28.9768  29.8994   C.3       2 RES2   0.0000
    91 H47A    21.1490  28.3546  30.3514   H         2 RES2   0.0000
    92 H47B    22.6881  28.7859  30.2233   H         2 RES2   0.0000
    93 C48C    21.7045  28.7772  28.4222   C.2       2 RES2   0.0000
    94 C49C    22.7513  29.2145  27.5608   C.2       2 RES2   0.0000
    95 H49C    23.5307  29.6072  27.9381   H         2 RES2   0.0000
    96 C50C    22.6640  29.0860  26.2616   C.2       2 RES2   0.0000
    97 H50C    23.2954  29.5292  25.7063   H         2 RES2   0.0000
    98 C51C    21.6039  28.2652  25.6529   C.2       2 RES2   0.0000
    99 C52C    20.6347  27.8343  26.5499   C.2       2 RES2   0.0000
   100 H52C    19.8653  27.3957  26.2082   H         2 RES2   0.0000
   101 C53C    20.7359  28.0050  27.8562   C.2       2 RES2   0.0000
   102 H53C    20.1113  27.5701  28.4257   H         2 RES2   0.0000
   103 C54C    21.6021  27.9454  24.2594   C.2       2 RES2   0.0000
   104 C55C    20.9792  27.5650  22.2092   C.2       2 RES2   0.0000
   105 C56C    22.3974  27.5646  22.2284   C.2       2 RES2   0.0000
   106 C57C    23.1904  27.3352  21.0313   C.2       2 RES2   0.0000
   107 C58C    24.5784  27.3719  20.9954   C.2       2 RES2   0.0000
   108 H58C    25.0977  27.5563  21.7696   H         2 RES2   0.0000
   109 C59C    25.1588  27.1227  19.7606   C.2       2 RES2   0.0000
   110 H59C    26.1051  27.1480  19.6731   H         2 RES2   0.0000
   111 C60C    24.3803  26.8406  18.6643   C.2       2 RES2   0.0000
   112 H60C    24.8152  26.6983  17.8328   H         2 RES2   0.0000
   113 C61C    22.4370  27.0337  19.9041   C.2       2 RES2   0.0000
   114 C62C    21.0309  26.9869  19.8863   C.2       2 RES2   0.0000
   115 C63C    20.2764  27.2764  21.0235   C.2       2 RES2   0.0000
   116 C64C    18.8551  27.2260  20.9395   C.2       2 RES2   0.0000
   117 H64C    18.3144  27.3682  21.7055   H         2 RES2   0.0000
   118 C65C    18.2999  26.9644  19.7240   C.2       2 RES2   0.0000
   119 H65C    17.3554  27.0103  19.6232   H         2 RES2   0.0000
   120 C66C    19.0821  26.6286  18.6237   C.2       2 RES2   0.0000
   121 H66C    18.6553  26.3588  17.8186   H         2 RES2   0.0000
   122 N1C     19.5746  32.1683  31.7182   N.3       2 RES2   0.0000
   123 N2C     18.6139  33.0914  28.9251   N.4       2 RES2   0.0000
   124 H2CC    17.7554  33.2823  29.1519   H         2 RES2   0.0000
   125 H2CD    18.7401  32.1949  29.0344   H         2 RES2   0.0000
   126 N3C     21.4191  30.3312  30.2254   N.4       2 RES2   0.0000
   127 H3CC    20.5795  30.5065  29.9243   H         2 RES2   0.0000
   128 H3CD    21.9929  30.9011  29.8104   H         2 RES2   0.0000
   129 N4C     17.6342  30.0032  31.2726   N.3       2 RES2   0.0000
   130 H4C     17.9663  29.2952  31.6542   H         2 RES2   0.0000
   131 N5C     15.1278  30.6716  22.7968   N.pl3     2 RES2   0.0000
   132 H5CA    14.8524  31.5067  22.7733   H         2 RES2   0.0000
   133 N6C     16.1452  28.8336  23.4956   N.2       2 RES2   0.0000
   134 N7C     20.5515  27.7995  23.4870   N.pl3     2 RES2   0.0000
   135 H7C     19.7131  27.8454  23.7486   H         2 RES2   0.0000
   136 N8C     22.7907  27.8711  23.4902   N.pl3     2 RES2   0.0000
   137 H8CA    23.6138  27.9968  23.7735   H         2 RES2   0.0000
   138 N9C     17.8859  25.1939  25.8604   N.2       2 RES2   0.0000
   139 N10C    17.0783  23.7743  27.3725   N.pl3     2 RES2   0.0000
   140 H10C    16.7371  23.4729  28.1267   H         2 RES2   0.0000
   141 N11C    23.0697  26.7548  18.6981   N.2       2 RES2   0.0000
   142 N12C    20.4366  26.6777  18.6665   N.2       2 RES2   0.0000
   143 N13C    12.8256  28.3037  19.1124   N.2       2 RES2   0.0000
   144 N14C    13.9902  26.1032  19.9414   N.2       2 RES2   0.0000
   145 N15C    18.4058  21.5509  22.4857   N.2       2 RES2   0.0000
   146 N16C    17.2615  19.9281  24.2313   N.2       2 RES2   0.0000
   147 C1D      3.9323  12.1030  21.0086   C.3       2 RES2   0.0000
   148 H1DA     3.1891  11.4795  20.8156   H         2 RES2   0.0000
   149 H1DB     4.1150  12.0714  21.9796   H         2 RES2   0.0000
   150 C2D      5.1804  11.6658  20.2390   C.3       2 RES2   0.0000
   151 H2DA     5.4039  10.7316  20.4739   H         2 RES2   0.0000
   152 H2DB     4.9981  11.7043  19.2637   H         2 RES2   0.0000
   153 C3D      7.5753  12.2365  19.7798   C.3       2 RES2   0.0000
   154 H3DA     7.8268  11.2960  19.9471   H         2 RES2   0.0000
   155 H3DB     7.3712  12.3283  18.8152   H         2 RES2   0.0000
   156 C4D      8.6935  13.0849  20.1038   C.2       2 RES2   0.0000
   157 C5D      9.4835  12.8936  21.2357   C.2       2 RES2   0.0000
   158 H5D      9.2655  12.2228  21.8692   H         2 RES2   0.0000
   159 C6D     10.5932  13.7002  21.4172   C.2       2 RES2   0.0000
   160 H6D     11.1865  13.4753  22.1255   H         2 RES2   0.0000
   161 C7D     10.9028  14.7770  20.6775   C.2       2 RES2   0.0000
   162 C8D     10.0178  15.0394  19.5876   C.2       2 RES2   0.0000
   163 H8D     10.1534  15.8153  19.0608   H         2 RES2   0.0000
   164 C9D      8.9965  14.2186  19.2886   C.2       2 RES2   0.0000
   165 H9D      8.4663  14.3976  18.5198   H         2 RES2   0.0000
   166 C10D    12.0401  15.6166  20.9281   C.2       2 RES2   0.0000
   167 C11D    13.4165  17.2518  21.1623   C.2       2 RES2   0.0000
   168 C12D    14.0665  16.1415  21.5439   C.2       2 RES2   0.0000
   169 C13D    15.4345  16.1259  21.9671   C.2       2 RES2   0.0000
   170 C14D    16.1133  15.0615  22.3526   C.2       2 RES2   0.0000
   171 H14D    15.7015  14.2049  22.3640   H         2 RES2   0.0000
   172 C15D    17.5475  15.2207  22.7762   C.2       2 RES2   0.0000
   173 H15D    18.0699  14.4801  23.0545   H         2 RES2   0.0000
   174 C16D    18.0740  16.5228  22.7413   C.2       2 RES2   0.0000
   175 H16D    18.9697  16.6411  23.0296   H         2 RES2   0.0000
   176 C17D    16.0842  17.4376  21.9472   C.2       2 RES2   0.0000
   177 C18D    15.3439  18.5783  21.5649   C.2       2 RES2   0.0000
   178 C19D    14.0274  18.5925  21.1805   C.2       2 RES2   0.0000
   179 C20D    13.3984  19.7758  20.8427   C.2       2 RES2   0.0000
   180 H20D    12.4791  19.7886  20.6056   H         2 RES2   0.0000
   181 C21D    14.1544  20.9558  20.8580   C.2       2 RES2   0.0000
   182 H21D    13.7691  21.7844  20.6021   H         2 RES2   0.0000
   183 C22D    15.4805  20.8843  21.2563   C.2       2 RES2   0.0000
   184 H22D    15.9879  21.6881  21.2713   H         2 RES2   0.0000
   185 C23D     2.8357  13.4964  19.3420   C.3       2 RES2   0.0000
   186 H23C     3.1535  12.7504  18.7761   H         2 RES2   0.0000
   187 H23D     1.8712  13.3423  19.5164   H         2 RES2   0.0000
   188 C24D     2.9661  14.7274  18.5803   C.3       2 RES2   0.0000
   189 H24C     2.7092  15.4941  19.1498   H         2 RES2   0.0000
   190 H24D     2.3470  14.7004  17.8079   H         2 RES2   0.0000
   191 C25D     4.4564  16.1828  17.3167   C.3       2 RES2   0.0000
   192 H25C     4.1415  16.9394  17.8755   H         2 RES2   0.0000
   193 H25D     3.8737  16.1319  16.5194   H         2 RES2   0.0000
   194 C26D     5.9671  16.4466  16.8647   C.2       2 RES2   0.0000
   195 C27D     6.5033  15.8235  15.9143   C.2       2 RES2   0.0000
   196 H27D     5.9934  15.1638  15.4587   H         2 RES2   0.0000
   197 C28D     7.8420  16.0575  15.4907   C.2       2 RES2   0.0000
   198 H28D     8.2371  15.5767  14.7717   H         2 RES2   0.0000
   199 C29D     8.5584  17.0811  16.2275   C.2       2 RES2   0.0000
   200 C30D     8.0396  17.6730  17.3381   C.2       2 RES2   0.0000
   201 H30D     8.5689  18.2470  17.8791   H         2 RES2   0.0000
   202 C31D     6.6567  17.3991  17.6727   C.2       2 RES2   0.0000
   203 H31D     6.2263  17.8341  18.3988   H         2 RES2   0.0000
   204 C32D     9.8903  17.4404  15.7701   C.2       2 RES2   0.0000
   205 C33D    11.9752  18.0483  15.6826   C.2       2 RES2   0.0000
   206 C34D    11.5267  17.9616  14.3798   C.2       2 RES2   0.0000
   207 C35D    12.3131  18.2585  13.2814   C.2       2 RES2   0.0000
   208 C36D    11.9254  18.2075  11.8871   C.2       2 RES2   0.0000
   209 H36D    11.0571  17.9121  11.6430   H         2 RES2   0.0000
   210 C37D    12.7983  18.5760  10.9478   C.2       2 RES2   0.0000
   211 H37D    12.5392  18.5269  10.0341   H         2 RES2   0.0000
   212 C38D    14.0850  19.0302  11.2699   C.2       2 RES2   0.0000
   213 H38D    14.6656  19.3114  10.5716   H         2 RES2   0.0000
   214 C39D    13.6350  18.7012  13.5259   C.2       2 RES2   0.0000
   215 C40D    14.0987  18.8118  14.8614   C.2       2 RES2   0.0000
   216 C41D    13.3246  18.5108  16.0011   C.2       2 RES2   0.0000
   217 C42D    13.8934  18.6466  17.2744   C.2       2 RES2   0.0000
   218 H42D    13.3985  18.4259  18.0535   H         2 RES2   0.0000
   219 C43D    15.1172  19.0820  17.3662   C.2       2 RES2   0.0000
   220 H43D    15.5158  19.1600  18.2244   H         2 RES2   0.0000
   221 C44D    15.8758  19.4450  16.2087   C.2       2 RES2   0.0000
   222 H44D    16.7369  19.8299  16.3201   H         2 RES2   0.0000
   223 C45D     2.8359  14.1704  21.6877   C.3       2 RES2   0.0000
   224 H45C     2.1955  13.5579  22.1362   H         2 RES2   0.0000
   225 H45D     2.3184  14.9114  21.2819   H         2 RES2   0.0000
   226 C46D     3.8224  14.7536  22.7520   C.3       2 RES2   0.0000
   227 H46C     3.3136  15.1041  23.5244   H         2 RES2   0.0000
   228 H46D     4.4281  14.0397  23.0759   H         2 RES2   0.0000
   229 C47D     5.5926  16.3503  23.0688   C.3       2 RES2   0.0000
   230 H47C     6.2309  15.6363  23.3108   H         2 RES2   0.0000
   231 H47D     5.1459  16.6595  23.8946   H         2 RES2   0.0000
   232 C48D     6.3578  17.5299  22.4138   C.2       2 RES2   0.0000
   233 C49D     7.7174  17.2642  21.8906   C.2       2 RES2   0.0000
   234 H49D     8.1037  16.3980  21.9404   H         2 RES2   0.0000
   235 C50D     8.3483  18.2447  21.3745   C.2       2 RES2   0.0000
   236 H50D     9.1971  18.0635  20.9829   H         2 RES2   0.0000
   237 C51D     7.8684  19.6289  21.3346   C.2       2 RES2   0.0000
   238 C52D     6.5477  19.7845  21.7945   C.2       2 RES2   0.0000
   239 H52D     6.1095  20.6191  21.6842   H         2 RES2   0.0000
   240 C53D     5.8875  18.7521  22.3925   C.2       2 RES2   0.0000
   241 H53D     5.0557  18.9260  22.8125   H         2 RES2   0.0000
   242 C54D     8.6597  20.7283  20.8156   C.2       2 RES2   0.0000
   243 C55D    10.0928  21.9258  19.7133   C.2       2 RES2   0.0000
   244 C56D    11.1637  22.3681  18.8530   C.2       2 RES2   0.0000
   245 C57D    11.8456  21.5954  17.9852   C.2       2 RES2   0.0000
   246 H57D    11.6367  20.6741  17.8862   H         2 RES2   0.0000
   247 C58D    12.9014  22.1983  17.2064   C.2       2 RES2   0.0000
   248 H58D    13.4385  21.6835  16.6155   H         2 RES2   0.0000
   249 C59D    13.0947  23.5513  17.3562   C.2       2 RES2   0.0000
   250 H59D    13.7977  23.9592  16.8647   H         2 RES2   0.0000
   251 C60D    11.4087  23.7509  18.8846   C.2       2 RES2   0.0000
   252 C61D    10.7085  24.5951  19.7952   C.2       2 RES2   0.0000
   253 C62D     9.6725  24.1547  20.6017   C.2       2 RES2   0.0000
   254 C63D     9.4433  22.7452  20.5053   C.2       2 RES2   0.0000
   255 C64D     8.9748  25.0494  21.4492   C.2       2 RES2   0.0000
   256 H64D     8.2700  24.7805  22.0223   H         2 RES2   0.0000
   257 C65D     9.4408  26.4203  21.3542   C.2       2 RES2   0.0000
   258 H65D     8.9936  27.0791  21.8728   H         2 RES2   0.0000
   259 C66D    10.4134  26.7919  20.6188   C.2       2 RES2   0.0000
   260 H66D    10.6626  27.7077  20.6234   H         2 RES2   0.0000
   261 N1D      3.5538  13.4382  20.6309   N.3       2 RES2   0.0000
   262 N2D      4.6004  15.8226  22.1529   N.4       2 RES2   0.0000
   263 H2DC     5.0185  15.5079  21.4065   H         2 RES2   0.0000
   264 H2DD     4.0394  16.4943  21.8977   H         2 RES2   0.0000
   265 N3D      4.3513  14.9183  18.0927   N.4       2 RES2   0.0000
   266 H3DC     4.5884  14.2186  17.5659   H         2 RES2   0.0000
   267 H3DD     4.9241  14.9435  18.8010   H         2 RES2   0.0000
   268 N4D      6.3502  12.5664  20.5722   N.3       2 RES2   0.0000
   269 H4D      6.5799  12.4063  21.4385   H         2 RES2   0.0000
   270 N5D     10.2525  17.5317  14.4859   N.pl3     2 RES2   0.0000
   271 H5DA     9.7316  17.3385  13.8035   H         2 RES2   0.0000
   272 N6D     10.9802  17.7327  16.5504   N.2       2 RES2   0.0000
   273 N7D     12.1148  16.9683  20.7679   N.2       2 RES2   0.0000
   274 N8D     13.1906  15.1399  21.3699   N.pl3     2 RES2   0.0000
   275 H8DA    13.3594  14.2920  21.5275   H         2 RES2   0.0000
   276 N9D      8.4615  21.9739  21.1922   N.pl3     2 RES2   0.0000
   277 H9DA     7.8482  22.2708  21.7518   H         2 RES2   0.0000
   278 N10D     9.6222  20.6369  19.9514   N.pl3     2 RES2   0.0000
   279 H10D     9.9234  19.8941  19.5841   H         2 RES2   0.0000
   280 N11D    11.1344  25.9018  19.7966   N.2       2 RES2   0.0000
   281 N12D    12.3697  24.3070  18.1340   N.2       2 RES2   0.0000
   282 N13D    14.5234  19.0793  12.5691   N.2       2 RES2   0.0000
   283 N14D    15.4229  19.2619  15.0298   N.2       2 RES2   0.0000
   284 N15D    16.0785  19.7675  21.6162   N.2       2 RES2   0.0000
   285 N16D    17.4063  17.6037  22.3316   N.2       2 RES2   0.0000
   286 Ru1     21.7823  26.3639  17.1437   Ru.oh     2 RES2   0.0000
   287 Ru2     16.3928  19.5454  13.2184   Ru.oh     2 RES2   0.0000
   288 C1C     15.6325  31.6824   2.8298   C.3       2 RES2   0.0000
   289 H1CA    15.8190  32.4197   2.1997   H         2 RES2   0.0000
   290 H1CB    15.1374  30.9791   2.3386   H         2 RES2   0.0000
   291 C2C     17.0334  31.0685   3.3494   C.3       2 RES2   0.0000
   292 H2CA    17.5465  30.7038   2.5877   H         2 RES2   0.0000
   293 H2CB    17.5761  31.7774   3.7766   H         2 RES2   0.0000
   294 C3C     18.0063  29.2310   4.7198   C.3       2 RES2   0.0000
   295 H3CA    18.3795  28.7813   3.9190   H         2 RES2   0.0000
   296 H3CB    18.6851  29.8641   5.0580   H         2 RES2   0.0000
   297 C4C     17.7276  28.2207   5.7556   C.2       2 RES2   0.0000
   298 C5C     17.3364  26.9309   5.2893   C.2       2 RES2   0.0000
   299 H5C     17.2755  26.7717   4.3568   H         2 RES2   0.0000
   300 C6C     17.0464  25.8995   6.1810   C.2       2 RES2   0.0000
   301 H6C     16.7744  25.0466   5.8660   H         2 RES2   0.0000
   302 C7C     17.1623  26.1422   7.5069   C.2       2 RES2   0.0000
   303 C8C     17.5096  27.3677   7.9981   C.2       2 RES2   0.0000
   304 H8C     17.5460  27.5196   8.9342   H         2 RES2   0.0000
   305 C9C     17.8325  28.4515   7.0441   C.2       2 RES2   0.0000
   306 H9C     18.1142  29.3044   7.3609   H         2 RES2   0.0000
   307 C10C    16.9512  25.0677   8.5412   C.2       2 RES2   0.0000
   308 C11C    16.5604  23.8931  10.3025   C.2       2 RES2   0.0000
   309 C12C    16.9994  23.0375   9.4030   C.2       2 RES2   0.0000
   310 C13C    17.3107  21.6271   9.6158   C.2       2 RES2   0.0000
   311 C14C    17.8771  20.7471   8.8093   C.2       2 RES2   0.0000
   312 H14C    18.1276  20.9953   7.9269   H         2 RES2   0.0000
   313 C15C    18.0971  19.4803   9.2521   C.2       2 RES2   0.0000
   314 H15C    18.5393  18.8526   8.6922   H         2 RES2   0.0000
   315 C16C    17.6835  19.1123  10.4993   C.2       2 RES2   0.0000
   316 H16C    17.8042  18.2057  10.7602   H         2 RES2   0.0000
   317 C17C    16.9304  21.2302  10.9005   C.2       2 RES2   0.0000
   318 C18C    16.3400  22.1382  11.8587   C.2       2 RES2   0.0000
   319 C19C    16.1511  23.4898  11.6234   C.2       2 RES2   0.0000
   320 C20C    15.5859  24.2515  12.5713   C.2       2 RES2   0.0000
   321 H20C    15.4327  25.1751  12.4011   H         2 RES2   0.0000
   322 C21C    15.2205  23.6995  13.8124   C.2       2 RES2   0.0000
   323 H21C    14.8401  24.2299  14.5012   H         2 RES2   0.0000
   324 C22C    15.4407  22.3534  13.9787   C.2       2 RES2   0.0000
   325 H22C    15.1707  21.9726  14.8073   H         2 RES2   0.0000
   326 C23C    15.1500  33.5424   4.2820   C.3       2 RES2   0.0000
   327 H23A    14.6450  34.1770   3.7125   H         2 RES2   0.0000
   328 H23B    16.1143  33.6952   4.1218   H         2 RES2   0.0000
   329 C24C    14.8375  33.8420   5.7627   C.3       2 RES2   0.0000
   330 H24A    14.9259  34.8147   5.9300   H         2 RES2   0.0000
   331 H24B    13.9040  33.5805   5.9621   H         2 RES2   0.0000
   332 C25C    15.5419  33.4599   8.1120   C.3       2 RES2   0.0000
   333 H25A    14.5804  33.3603   8.3220   H         2 RES2   0.0000
   334 H25B    15.7876  34.4110   8.2508   H         2 RES2   0.0000
   335 C26C    15.7695  31.5117   9.6105   C.2       2 RES2   0.0000
   336 H26C    14.8805  31.3140   9.3507   H         2 RES2   0.0000
   337 C27C    16.3726  32.5670   9.0873   C.2       2 RES2   0.0000
   338 C28C    17.5966  32.7854   9.3222   C.2       2 RES2   0.0000
   339 H28C    18.0315  33.4933   8.8630   H         2 RES2   0.0000
   340 C29C    18.3547  32.0063  10.2548   C.2       2 RES2   0.0000
   341 H29C    19.2514  32.2316  10.4612   H         2 RES2   0.0000
   342 C30C    17.7437  30.9107  10.8492   C.2       2 RES2   0.0000
   343 C31C    16.4193  30.6533  10.5644   C.2       2 RES2   0.0000
   344 H31C    15.9536  29.9375  10.9809   H         2 RES2   0.0000
   345 C32C    18.3845  30.2101  11.9526   C.2       2 RES2   0.0000
   346 C33C    19.0204  28.5350  13.2098   C.2       2 RES2   0.0000
   347 C34C    19.7173  29.6434  13.6818   C.2       2 RES2   0.0000
   348 C35C    20.5521  29.6944  14.7215   C.2       2 RES2   0.0000
   349 C36C    21.2518  30.8079  15.2145   C.2       2 RES2   0.0000
   350 H36C    21.1741  31.6581  14.7966   H         2 RES2   0.0000
   351 C37C    22.0727  30.6285  16.3514   C.2       2 RES2   0.0000
   352 H37C    22.5538  31.3736  16.6938   H         2 RES2   0.0000
   353 C38C    22.1963  29.4273  16.9700   C.2       2 RES2   0.0000
   354 H38C    22.7280  29.3594  17.7545   H         2 RES2   0.0000
   355 C39C    20.7696  28.4303  15.4355   C.2       2 RES2   0.0000
   356 C40C    20.1333  27.2893  14.9347   C.2       2 RES2   0.0000
   357 C41C    19.2356  27.2728  13.8598   C.2       2 RES2   0.0000
   358 C42C    18.5954  26.0468  13.5277   C.2       2 RES2   0.0000
   359 H42C    17.9651  26.0376  12.8176   H         2 RES2   0.0000
   360 C43C    18.8550  24.8901  14.1922   C.2       2 RES2   0.0000
   361 H43C    18.4663  24.0602  13.9317   H         2 RES2   0.0000
   362 C44C    19.7419  24.9943  15.2978   C.2       2 RES2   0.0000
   363 H44C    19.8775  24.2162  15.8253   H         2 RES2   0.0000
   364 C45C    13.4047  32.0637   3.6591   C.3       2 RES2   0.0000
   365 H45A    13.1902  32.3647   2.7408   H         2 RES2   0.0000
   366 H45B    12.9291  32.6537   4.2927   H         2 RES2   0.0000
   367 C46C    12.9105  30.5574   3.8584   C.3       2 RES2   0.0000
   368 H46A    11.9876  30.4422   3.5203   H         2 RES2   0.0000
   369 H46B    13.5059  29.9238   3.3850   H         2 RES2   0.0000
   370 C47C    12.6177  28.9768   5.6951   C.3       2 RES2   0.0000
   371 H47A    13.2407  28.3546   5.2431   H         2 RES2   0.0000
   372 H47B    11.7016  28.7859   5.3712   H         2 RES2   0.0000
   373 C48C    12.6852  28.7772   7.1723   C.2       2 RES2   0.0000
   374 C49C    11.6384  29.2145   8.0337   C.2       2 RES2   0.0000
   375 H49C    10.8590  29.6072   7.6564   H         2 RES2   0.0000
   376 C50C    11.7258  29.0860   9.3329   C.2       2 RES2   0.0000
   377 H50C    11.0944  29.5292   9.8881   H         2 RES2   0.0000
   378 C51C    12.7859  28.2652   9.9415   C.2       2 RES2   0.0000
   379 C52C    13.7551  27.8343   9.0446   C.2       2 RES2   0.0000
   380 H52C    14.5245  27.3957   9.3863   H         2 RES2   0.0000
   381 C53C    13.6539  28.0050   7.7382   C.2       2 RES2   0.0000
   382 H53C    14.2785  27.5701   7.1687   H         2 RES2   0.0000
   383 C54C    12.7876  27.9454  11.3351   C.2       2 RES2   0.0000
   384 C55C    13.4106  27.5650  13.3853   C.2       2 RES2   0.0000
   385 C56C    11.9923  27.5646  13.3661   C.2       2 RES2   0.0000
   386 C57C    11.1993  27.3352  14.5631   C.2       2 RES2   0.0000
   387 C58C     9.8114  27.3719  14.5991   C.2       2 RES2   0.0000
   388 H58C     9.2921  27.5563  13.8249   H         2 RES2   0.0000
   389 C59C     9.2309  27.1227  15.8338   C.2       2 RES2   0.0000
   390 H59C     8.2846  27.1480  15.9214   H         2 RES2   0.0000
   391 C60C    10.0095  26.8406  16.9302   C.2       2 RES2   0.0000
   392 H60C     9.5745  26.6983  17.7616   H         2 RES2   0.0000
   393 C61C    11.9527  27.0337  15.6904   C.2       2 RES2   0.0000
   394 C62C    13.3588  26.9869  15.7082   C.2       2 RES2   0.0000
   395 C63C    14.1133  27.2764  14.5710   C.2       2 RES2   0.0000
   396 C64C    15.5346  27.2260  14.6550   C.2       2 RES2   0.0000
   397 H64C    16.0753  27.3682  13.8890   H         2 RES2   0.0000
   398 C65C    16.0899  26.9644  15.8705   C.2       2 RES2   0.0000
   399 H65C    17.0343  27.0103  15.9712   H         2 RES2   0.0000
   400 C66C    15.3076  26.6286  16.9707   C.2       2 RES2   0.0000
   401 H66C    15.7344  26.3588  17.7759   H         2 RES2   0.0000
   402 N1C     14.8151  32.1683   3.8762   N.3       2 RES2   0.0000
   403 N2C     15.7758  33.0914   6.6693   N.4       2 RES2   0.0000
   404 H2CC    16.6343  33.2823   6.4426   H         2 RES2   0.0000
   405 H2CD    15.6496  32.1949   6.5601   H         2 RES2   0.0000
   406 N3C     12.9706  30.3312   5.3691   N.4       2 RES2   0.0000
   407 H3CC    13.8103  30.5065   5.6702   H         2 RES2   0.0000
   408 H3CD    12.3969  30.9011   5.7841   H         2 RES2   0.0000
   409 N4C     16.7555  30.0032   4.3219   N.3       2 RES2   0.0000
   410 H4C     16.4235  29.2952   3.9403   H         2 RES2   0.0000
   411 N5C     19.2619  30.6716  12.7976   N.pl3     2 RES2   0.0000
   412 H5CA    19.5374  31.5067  12.8211   H         2 RES2   0.0000
   413 N6C     18.2445  28.8336  12.0989   N.2       2 RES2   0.0000
   414 N7C     13.8382  27.7995  12.1075   N.pl3     2 RES2   0.0000
   415 H7C     14.6766  27.8454  11.8458   H         2 RES2   0.0000
   416 N8C     11.5990  27.8711  12.1043   N.pl3     2 RES2   0.0000
   417 H8CA    10.7759  27.9968  11.8209   H         2 RES2   0.0000
   418 N9C     16.5038  25.1939   9.7340   N.2       2 RES2   0.0000
   419 N10C    17.3114  23.7743   8.2220   N.pl3     2 RES2   0.0000
   420 H10C    17.6526  23.4729   7.4677   H         2 RES2   0.0000
   421 N11C    11.3200  26.7548  16.8963   N.2       2 RES2   0.0000
   422 N12C    13.9531  26.6777  16.9280   N.2       2 RES2   0.0000
   423 N13C    21.5641  28.3037  16.4820   N.2       2 RES2   0.0000
   424 N14C    20.3996  26.1032  15.6530   N.2       2 RES2   0.0000
   425 N15C    15.9839  21.5509  13.1087   N.2       2 RES2   0.0000
   426 N16C    17.1282  19.9281  11.3632   N.2       2 RES2   0.0000
   427 C1D     30.4574  12.1030  14.5859   C.3       2 RES2   0.0000
   428 H1DA    31.2006  11.4795  14.7788   H         2 RES2   0.0000
   429 H1DB    30.2748  12.0714  13.6149   H         2 RES2   0.0000
   430 C2D     29.2093  11.6658  15.3555   C.3       2 RES2   0.0000
   431 H2DA    28.9858  10.7316  15.1205   H         2 RES2   0.0000
   432 H2DB    29.3916  11.7043  16.3307   H         2 RES2   0.0000
   433 C3D     26.8145  12.2365  15.8146   C.3       2 RES2   0.0000
   434 H3DA    26.5629  11.2960  15.6473   H         2 RES2   0.0000
   435 H3DB    27.0185  12.3283  16.7792   H         2 RES2   0.0000
   436 C4D     25.6962  13.0849  15.4907   C.2       2 RES2   0.0000
   437 C5D     24.9063  12.8936  14.3588   C.2       2 RES2   0.0000
   438 H5D     25.1242  12.2228  13.7252   H         2 RES2   0.0000
   439 C6D     23.7966  13.7002  14.1773   C.2       2 RES2   0.0000
   440 H6D     23.2032  13.4753  13.4689   H         2 RES2   0.0000
   441 C7D     23.4869  14.7770  14.9169   C.2       2 RES2   0.0000
   442 C8D     24.3719  15.0394  16.0068   C.2       2 RES2   0.0000
   443 H8D     24.2363  15.8153  16.5336   H         2 RES2   0.0000
   444 C9D     25.3933  14.2186  16.3058   C.2       2 RES2   0.0000
   445 H9D     25.9234  14.3976  17.0747   H         2 RES2   0.0000
   446 C10D    22.3496  15.6166  14.6663   C.2       2 RES2   0.0000
   447 C11D    20.9732  17.2518  14.4321   C.2       2 RES2   0.0000
   448 C12D    20.3232  16.1415  14.0506   C.2       2 RES2   0.0000
   449 C13D    18.9553  16.1259  13.6273   C.2       2 RES2   0.0000
   450 C14D    18.2764  15.0615  13.2419   C.2       2 RES2   0.0000
   451 H14D    18.6883  14.2049  13.2305   H         2 RES2   0.0000
   452 C15D    16.8422  15.2207  12.8183   C.2       2 RES2   0.0000
   453 H15D    16.3198  14.4801  12.5399   H         2 RES2   0.0000
   454 C16D    16.3157  16.5228  12.8532   C.2       2 RES2   0.0000
   455 H16D    15.4201  16.6411  12.5648   H         2 RES2   0.0000
   456 C17D    18.3055  17.4376  13.6473   C.2       2 RES2   0.0000
   457 C18D    19.0458  18.5783  14.0296   C.2       2 RES2   0.0000
   458 C19D    20.3623  18.5925  14.4140   C.2       2 RES2   0.0000
   459 C20D    20.9913  19.7758  14.7518   C.2       2 RES2   0.0000
   460 H20D    21.9106  19.7886  14.9888   H         2 RES2   0.0000
   461 C21D    20.2353  20.9558  14.7365   C.2       2 RES2   0.0000
   462 H21D    20.6206  21.7844  14.9924   H         2 RES2   0.0000
   463 C22D    18.9092  20.8843  14.3382   C.2       2 RES2   0.0000
   464 H22D    18.4018  21.6881  14.3232   H         2 RES2   0.0000
   465 C23D    31.5541  13.4964  16.2524   C.3       2 RES2   0.0000
   466 H23C    31.2363  12.7504  16.8184   H         2 RES2   0.0000
   467 H23D    32.5186  13.3423  16.0780   H         2 RES2   0.0000
   468 C24D    31.4237  14.7274  17.0142   C.3       2 RES2   0.0000
   469 H24C    31.6805  15.4941  16.4446   H         2 RES2   0.0000
   470 H24D    32.0427  14.7004  17.7866   H         2 RES2   0.0000
   471 C25D    29.9333  16.1828  18.2778   C.3       2 RES2   0.0000
   472 H25C    30.2482  16.9394  17.7189   H         2 RES2   0.0000
   473 H25D    30.5161  16.1319  19.0751   H         2 RES2   0.0000
   474 C26D    28.4227  16.4466  18.7298   C.2       2 RES2   0.0000
   475 C27D    27.8864  15.8235  19.6802   C.2       2 RES2   0.0000
   476 H27D    28.3963  15.1638  20.1358   H         2 RES2   0.0000
   477 C28D    26.5477  16.0575  20.1038   C.2       2 RES2   0.0000
   478 H28D    26.1526  15.5767  20.8228   H         2 RES2   0.0000
   479 C29D    25.8313  17.0811  19.3670   C.2       2 RES2   0.0000
   480 C30D    26.3501  17.6730  18.2564   C.2       2 RES2   0.0000
   481 H30D    25.8208  18.2470  17.7154   H         2 RES2   0.0000
   482 C31D    27.7330  17.3991  17.9218   C.2       2 RES2   0.0000
   483 H31D    28.1634  17.8341  17.1957   H         2 RES2   0.0000
   484 C32D    24.4994  17.4404  19.8243   C.2       2 RES2   0.0000
   485 C33D    22.4146  18.0483  19.9119   C.2       2 RES2   0.0000
   486 C34D    22.8630  17.9616  21.2147   C.2       2 RES2   0.0000
   487 C35D    22.0766  18.2585  22.3131   C.2       2 RES2   0.0000
   488 C36D    22.4643  18.2075  23.7073   C.2       2 RES2   0.0000
   489 H36D    23.3326  17.9121  23.9515   H         2 RES2   0.0000
   490 C37D    21.5914  18.5760  24.6467   C.2       2 RES2   0.0000
   491 H37D    21.8505  18.5269  25.5604   H         2 RES2   0.0000
   492 C38D    20.3048  19.0302  24.3245   C.2       2 RES2   0.0000
   493 H38D    19.7241  19.3114  25.0229   H         2 RES2   0.0000
   494 C39D    20.7548  18.7012  22.0686   C.2       2 RES2   0.0000
   495 C40D    20.2911  18.8118  20.7331   C.2       2 RES2   0.0000
   496 C41D    21.0651  18.5108  19.5933   C.2       2 RES2   0.0000
   497 C42D    20.4963  18.6466  18.3201   C.2       2 RES2   0.0000
   498 H42D    20.9912  18.4259  17.5410   H         2 RES2   0.0000
   499 C43D    19.2725  19.0820  18.2283   C.2       2 RES2   0.0000
   500 H43D    18.8739  19.1600  17.3701   H         2 RES2   0.0000
   501 C44D    18.5139  19.4450  19.3858   C.2       2 RES2   0.0000
   502 H44D    17.6529  19.8299  19.2744   H         2 RES2   0.0000
   503 C45D    31.5538  14.1704  13.9068   C.3       2 RES2   0.0000
   504 H45C    32.1942  13.5579  13.4583   H         2 RES2   0.0000
   505 H45D    32.0713  14.9114  14.3125   H         2 RES2   0.0000
   506 C46D    30.5674  14.7536  12.8425   C.3       2 RES2   0.0000
   507 H46C    31.0761  15.1041  12.0701   H         2 RES2   0.0000
   508 H46D    29.9616  14.0397  12.5186   H         2 RES2   0.0000
   509 C47D    28.7971  16.3503  12.5257   C.3       2 RES2   0.0000
   510 H47C    28.1589  15.6363  12.2837   H         2 RES2   0.0000
   511 H47D    29.2438  16.6595  11.6999   H         2 RES2   0.0000
   512 C48D    28.0319  17.5299  13.1806   C.2       2 RES2   0.0000
   513 C49D    26.6723  17.2642  13.7039   C.2       2 RES2   0.0000
   514 H49D    26.2860  16.3980  13.6540   H         2 RES2   0.0000
   515 C50D    26.0415  18.2447  14.2200   C.2       2 RES2   0.0000
   516 H50D    25.1926  18.0635  14.6115   H         2 RES2   0.0000
   517 C51D    26.5213  19.6289  14.2599   C.2       2 RES2   0.0000
   518 C52D    27.8421  19.7845  13.8000   C.2       2 RES2   0.0000
   519 H52D    28.2802  20.6191  13.9103   H         2 RES2   0.0000
   520 C53D    28.5023  18.7521  13.2020   C.2       2 RES2   0.0000
   521 H53D    29.3341  18.9260  12.7820   H         2 RES2   0.0000
   522 C54D    25.7301  20.7283  14.7788   C.2       2 RES2   0.0000
   523 C55D    24.2969  21.9258  15.8812   C.2       2 RES2   0.0000
   524 C56D    23.2260  22.3681  16.7415   C.2       2 RES2   0.0000
   525 C57D    22.5441  21.5954  17.6093   C.2       2 RES2   0.0000
   526 H57D    22.7530  20.6741  17.7082   H         2 RES2   0.0000
   527 C58D    21.4883  22.1983  18.3881   C.2       2 RES2   0.0000
   528 H58D    20.9512  21.6835  18.9790   H         2 RES2   0.0000
   529 C59D    21.2950  23.5513  18.2382   C.2       2 RES2   0.0000
   530 H59D    20.5920  23.9592  18.7298   H         2 RES2   0.0000
   531 C60D    22.9810  23.7509  16.7098   C.2       2 RES2   0.0000
   532 C61D    23.6813  24.5951  15.7993   C.2       2 RES2   0.0000
   533 C62D    24.7173  24.1547  14.9927   C.2       2 RES2   0.0000
   534 C63D    24.9464  22.7452  15.0892   C.2       2 RES2   0.0000
   535 C64D    25.4149  25.0494  14.1452   C.2       2 RES2   0.0000
   536 H64D    26.1198  24.7805  13.5722   H         2 RES2   0.0000
   537 C65D    24.9490  26.4203  14.2403   C.2       2 RES2   0.0000
   538 H65D    25.3962  27.0791  13.7217   H         2 RES2   0.0000
   539 C66D    23.9763  26.7919  14.9757   C.2       2 RES2   0.0000
   540 H66D    23.7271  27.7077  14.9710   H         2 RES2   0.0000
   541 N1D     30.8359  13.4382  14.9636   N.3       2 RES2   0.0000
   542 N2D     29.7893  15.8226  13.4415   N.4       2 RES2   0.0000
   543 H2DC    29.3712  15.5079  14.1880   H         2 RES2   0.0000
   544 H2DD    30.3504  16.4943  13.6968   H         2 RES2   0.0000
   545 N3D     30.0384  14.9183  17.5018   N.4       2 RES2   0.0000
   546 H3DC    29.8013  14.2186  18.0286   H         2 RES2   0.0000
   547 H3DD    29.4656  14.9435  16.7935   H         2 RES2   0.0000
   548 N4D     28.0396  12.5664  15.0223   N.3       2 RES2   0.0000
   549 H4D     27.8098  12.4063  14.1559   H         2 RES2   0.0000
   550 N5D     24.1373  17.5317  21.1086   N.pl3     2 RES2   0.0000
   551 H5DA    24.6581  17.3385  21.7909   H         2 RES2   0.0000
   552 N6D     23.4095  17.7327  19.0441   N.2       2 RES2   0.0000
   553 N7D     22.2750  16.9683  14.8265   N.2       2 RES2   0.0000
   554 N8D     21.1991  15.1399  14.2246   N.pl3     2 RES2   0.0000
   555 H8DA    21.0304  14.2920  14.0669   H         2 RES2   0.0000
   556 N9D     25.9282  21.9739  14.4022   N.pl3     2 RES2   0.0000
   557 H9DA    26.5415  22.2708  13.8427   H         2 RES2   0.0000
   558 N10D    24.7676  20.6369  15.6431   N.pl3     2 RES2   0.0000
   559 H10D    24.4664  19.8941  16.0104   H         2 RES2   0.0000
   560 N11D    23.2553  25.9018  15.7979   N.2       2 RES2   0.0000
   561 N12D    22.0200  24.3070  17.4605   N.2       2 RES2   0.0000
   562 N13D    19.8664  19.0793  23.0253   N.2       2 RES2   0.0000
   563 N14D    18.9668  19.2619  20.5647   N.2       2 RES2   0.0000
   564 N15D    18.3113  19.7675  13.9783   N.2       2 RES2   0.0000
   565 N16D    16.9834  17.6037  13.2629   N.2       2 RES2   0.0000
   566 C1A     12.8698  34.0412  28.2122   C.2       3 RES3   0.0000
   567 C2A     13.3768  35.9026  26.7848   C.3       3 RES3   0.0000
   568 H2AA    12.6710  36.4665  26.3791   H         3 RES3   0.0000
   569 H2AB    13.6479  36.3288  27.6355   H         3 RES3   0.0000
   570 C3A     15.7784  36.2343  26.2901   C.2       3 RES3   0.0000
   571 C4A     17.7662  37.1790  25.1866   C.3       3 RES3   0.0000
   572 H4AA    17.7258  37.9392  24.5531   H         3 RES3   0.0000
   573 H4AB    17.9041  37.5493  26.0943   H         3 RES3   0.0000
   574 C5A     20.0016  36.2504  25.6565   C.2       3 RES3   0.0000
   575 C6A     22.3560  35.8700  25.3005   C.3       3 RES3   0.0000
   576 H6AA    22.3856  36.2279  26.2224   H         3 RES3   0.0000
   577 H6AB    22.7893  36.5307  24.6990   H         3 RES3   0.0000
   578 C7A     23.7957  34.1311  26.3613   C.2       3 RES3   0.0000
   579 C8A     25.9308  33.0896  26.7706   C.3       3 RES3   0.0000
   580 H8AA    26.7245  33.4842  26.3257   H         3 RES3   0.0000
   581 H8AB    25.8284  33.5209  27.6569   H         3 RES3   0.0000
   582 C9A     26.0931  31.1396  28.1944   C.2       3 RES3   0.0000
   583 C10A    26.9774  29.2080  29.3405   C.3       3 RES3   0.0000
   584 H10A    26.9255  29.8458  30.0951   H         3 RES3   0.0000
   585 H10B    27.9160  28.9006  29.2765   H         3 RES3   0.0000
   586 C11A    25.2933  27.9647  30.6753   C.2       3 RES3   0.0000
   587 C12A    24.2226  26.3359  32.0208   C.3       3 RES3   0.0000
   588 H12A    24.0408  27.1296  32.5867   H         3 RES3   0.0000
   589 H12B    24.9104  25.7853  32.4693   H         3 RES3   0.0000
   590 C13A    21.8953  25.8082  32.7006   C.2       3 RES3   0.0000
   591 C14A    20.1972  24.3676  33.7756   C.3       3 RES3   0.0000
   592 H14A    20.4946  23.5371  34.2170   H         3 RES3   0.0000
   593 H14B    20.2477  25.1017  34.4376   H         3 RES3   0.0000
   594 C15A    17.7894  25.0420  33.6902   C.2       3 RES3   0.0000
   595 C16A    15.3899  24.9415  34.0240   C.3       3 RES3   0.0000
   596 H16A    14.8548  24.2070  34.4199   H         3 RES3   0.0000
   597 H16B    15.6034  25.5834  34.7473   H         3 RES3   0.0000
   598 C17A    14.4306  26.9075  33.0210   C.2       3 RES3   0.0000
   599 C18A    12.7270  28.4735  32.1450   C.3       3 RES3   0.0000
   600 H18A    13.1258  29.0704  32.8252   H         3 RES3   0.0000
   601 H18B    11.8062  28.2491  32.4372   H         3 RES3   0.0000
   602 C19A    12.6115  30.5244  30.8604   C.2       3 RES3   0.0000
   603 C20A    11.6112  32.3449  29.5292   C.3       3 RES3   0.0000
   604 H20A    10.6242  32.3555  29.5648   H         3 RES3   0.0000
   605 H20B    11.9499  32.8969  30.2767   H         3 RES3   0.0000
   606 C21A    11.3161  32.7982  27.0781   C.3       3 RES3   0.0000
   607 H21A    10.3210  32.7914  27.1871   H         3 RES3   0.0000
   608 C22A    11.8438  33.9797  26.1904   C.3       3 RES3   0.0000
   609 H22A    11.1112  34.6174  25.9626   H         3 RES3   0.0000
   610 C23A    14.3350  35.9287  24.4534   C.3       3 RES3   0.0000
   611 H23E    13.7003  36.6637  24.2114   H         3 RES3   0.0000
   612 C24A    15.6804  36.2371  23.9551   C.3       3 RES3   0.0000
   613 H24E    15.6597  37.0721  23.4069   H         3 RES3   0.0000
   614 C25A    19.1938  35.9879  23.4781   C.3       3 RES3   0.0000
   615 H25E    19.0831  36.7830  22.8837   H         3 RES3   0.0000
   616 C26A    20.6716  35.5291  23.5030   C.3       3 RES3   0.0000
   617 H26A    21.2549  36.0765  22.8979   H         3 RES3   0.0000
   618 C27A    23.5695  34.1127  23.9622   C.3       3 RES3   0.0000
   619 H27A    23.8047  34.8331  23.3144   H         3 RES3   0.0000
   620 C28A    25.0092  33.1355  24.4926   C.2       3 RES3   0.0000
   621 H28A    25.8955  33.4750  24.1758   H         3 RES3   0.0000
   622 C29A    26.8189  30.8185  26.0480   C.3       3 RES3   0.0000
   623 H29A    27.6323  31.2819  25.6956   H         3 RES3   0.0000
   624 C30A    27.2298  29.5476  26.8667   C.3       3 RES3   0.0000
   625 H30A    28.2192  29.4099  26.9165   H         3 RES3   0.0000
   626 C31A    26.2046  26.7901  28.9917   C.3       3 RES3   0.0000
   627 H31A    27.1345  26.4322  29.0593   H         3 RES3   0.0000
   628 C32A    25.2813  25.9229  29.7356   C.3       3 RES3   0.0000
   629 H32A    25.7777  25.1705  30.1628   H         3 RES3   0.0000
   630 C33A    22.9260  24.2483  31.2092   C.3       3 RES3   0.0000
   631 H33A    23.7533  23.7160  31.3908   H         3 RES3   0.0000
   632 C34A    21.5884  23.5600  31.9176   C.3       3 RES3   0.0000
   633 H34A    21.8177  22.7801  32.5013   H         3 RES3   0.0000
   634 C35A    18.3156  22.9498  32.9178   C.3       3 RES3   0.0000
   635 H35A    18.6568  22.1974  33.4766   H         3 RES3   0.0000
   636 C36A    16.8083  23.0879  33.0124   C.3       3 RES3   0.0000
   637 H36A    16.4269  22.4084  33.6403   H         3 RES3   0.0000
   638 C37A    13.7936  24.8755  32.1560   C.3       3 RES3   0.0000
   639 H37A    13.1594  24.2896  32.6615   H         3 RES3   0.0000
   640 C38A    13.0052  26.0170  31.4050   C.3       3 RES3   0.0000
   641 H38A    12.0139  25.9138  31.4975   H         3 RES3   0.0000
   642 C39A    11.8343  28.6639  29.7986   C.3       3 RES3   0.0000
   643 H39A    11.0384  28.1574  30.1343   H         3 RES3   0.0000
   644 C40A    11.4239  29.9343  28.9365   C.3       3 RES3   0.0000
   645 H40A    10.4307  30.0568  28.9098   H         3 RES3   0.0000
   646 C41A    12.3249  31.9967  25.0585   C.2       3 RES3   0.0000
   647 C42A    12.6321  34.1788  23.7949   C.3       3 RES3   0.0000
   648 H42A    12.4926  33.5989  23.0047   H         3 RES3   0.0000
   649 H42B    11.9773  34.9203  23.7486   H         3 RES3   0.0000
   650 C43A    14.9302  34.2343  22.9513   C.2       3 RES3   0.0000
   651 C44A    17.1945  35.0350  22.2928   C.3       3 RES3   0.0000
   652 H44A    17.0597  34.2687  21.6806   H         3 RES3   0.0000
   653 H44B    17.2472  35.8516  21.7375   H         3 RES3   0.0000
   654 C45A    19.2459  33.8191  22.7022   C.2       3 RES3   0.0000
   655 C46A    21.7737  33.5255  22.4174   C.3       3 RES3   0.0000
   656 H46E    21.4881  32.7455  21.8728   H         3 RES3   0.0000
   657 H46F    22.1897  34.1862  21.8087   H         3 RES3   0.0000
   658 C47A    23.4074  31.8462  23.3037   C.2       3 RES3   0.0000
   659 C48A    25.6780  30.9928  23.7522   C.3       3 RES3   0.0000
   660 H48A    25.4189  30.3505  23.0439   H         3 RES3   0.0000
   661 H48B    26.4804  31.4792  23.4390   H         3 RES3   0.0000
   662 C49A    25.9299  28.9236  24.9980   C.2       3 RES3   0.0000
   663 C50A    26.6589  27.0837  26.5392   C.3       3 RES3   0.0000
   664 H50A    27.5931  26.9186  26.8169   H         3 RES3   0.0000
   665 H50B    26.4636  26.5056  25.7633   H         3 RES3   0.0000
   666 C51A    24.7074  25.8862  27.5359   C.2       3 RES3   0.0000
   667 C52A    23.6607  24.1703  28.9169   C.3       3 RES3   0.0000
   668 H52A    23.3028  23.8858  28.0378   H         3 RES3   0.0000
   669 H52B    24.3088  23.4820  29.2053   H         3 RES3   0.0000
   670 C53A    21.3791  23.5600  29.5648   C.2       3 RES3   0.0000
   671 C54A    19.7992  22.1983  30.9245   C.3       3 RES3   0.0000
   672 H54A    19.6158  21.8120  30.0311   H         3 RES3   0.0000
   673 H54B    20.1192  21.4679  31.5082   H         3 RES3   0.0000
   674 C55A    17.3989  22.6030  30.7963   C.2       3 RES3   0.0000
   675 C56A    14.9529  22.8567  31.2270   C.3       3 RES3   0.0000
   676 H56A    14.8877  22.3855  30.3585   H         3 RES3   0.0000
   677 H56B    14.4212  22.3442  31.8855   H         3 RES3   0.0000
   678 C57A    14.1627  24.7227  29.8282   C.2       3 RES3   0.0000
   679 C58A    12.6305  26.3744  28.9070   C.3       3 RES3   0.0000
   680 H58A    11.6945  26.0835  29.0380   H         3 RES3   0.0000
   681 H58B    12.9624  25.9826  28.0627   H         3 RES3   0.0000
   682 C59A    12.5980  28.4005  27.5750   C.2       3 RES3   0.0000
   683 C60A    11.3407  30.2807  26.5318   C.3       3 RES3   0.0000
   684 H60A    10.3626  30.3413  26.6816   H         3 RES3   0.0000
   685 H60B    11.4908  29.7173  25.7312   H         3 RES3   0.0000
   686 N1A     12.0298  32.9249  28.3054   N.am      3 RES3   0.0000
   687 N2A     12.0736  30.9827  29.7093   N.am      3 RES3   0.0000
   688 N3A     12.6751  29.1585  30.8789   N.am      3 RES3   0.0000
   689 N4A     13.4987  27.2787  32.0525   N.am      3 RES3   0.0000
   690 N5A     14.6039  25.6041  33.0438   N.am      3 RES3   0.0000
   691 N6A     16.6183  24.3942  33.5054   N.am      3 RES3   0.0000
   692 N7A     18.8612  24.2207  33.3303   N.am      3 RES3   0.0000
   693 N8A     21.0682  24.6635  32.6572   N.am      3 RES3   0.0000
   694 N9A     22.9838  25.5467  31.8464   N.am      3 RES3   0.0000
   695 N10A    24.6999  26.7626  30.7323   N.am      3 RES3   0.0000
   696 N11A    26.1261  28.0472  29.6502   N.am      3 RES3   0.0000
   697 N12A    26.6412  29.8917  28.1410   N.am      3 RES3   0.0000
   698 N13A    26.1306  31.6535  26.9486   N.am      3 RES3   0.0000
   699 N14A    24.7284  33.3419  25.9519   N.am      3 RES3   0.0000
   700 N15A    23.0783  34.6330  25.2472   N.am      3 RES3   0.0000
   701 N16A    21.0120  35.6911  24.9090   N.am      3 RES3   0.0000
   702 N17A    18.8864  36.3270  24.8414   N.am      3 RES3   0.0000
   703 N18A    16.4977  36.4426  25.1511   N.am      3 RES3   0.0000
   704 N19A    14.5006  35.8636  25.9057   N.am      3 RES3   0.0000
   705 N20A    12.8240  34.5940  27.0685   N.am      3 RES3   0.0000
   706 N21A    11.8637  31.5957  26.2926   N.am      3 RES3   0.0000
   707 N22A    11.9505  29.6618  27.6594   N.am      3 RES3   0.0000
   708 N23A    12.6808  27.8380  28.8201   N.am      3 RES3   0.0000
   709 N24A    13.4386  25.9055  30.0072   N.am      3 RES3   0.0000
   710 N25A    14.3621  24.1666  31.0832   N.am      3 RES3   0.0000
   711 N26A    16.3431  22.8636  31.6524   N.am      3 RES3   0.0000
   712 N27A    18.5859  22.7259  31.4609   N.am      3 RES3   0.0000
   713 N28A    20.8397  23.1967  30.8052   N.am      3 RES3   0.0000
   714 N29A    22.5778  24.2079  29.8638   N.am      3 RES3   0.0000
   715 N30A    24.3630  25.4224  28.7461   N.am      3 RES3   0.0000
   716 N31A    25.7588  26.7254  27.6462   N.am      3 RES3   0.0000
   717 N32A    26.5201  28.4455  26.1513   N.am      3 RES3   0.0000
   718 N33A    26.0138  30.2624  24.9232   N.am      3 RES3   0.0000
   719 N34A    24.5950  31.9568  23.9230   N.am      3 RES3   0.0000
   720 N35A    22.7369  33.0988  23.3891   N.am      3 RES3   0.0000
   721 N36A    20.5796  34.1384  23.0795   N.am      3 RES3   0.0000
   722 N37A    18.4510  34.8597  22.9702   N.am      3 RES3   0.0000
   723 N38A    16.0466  35.1405  23.1542   N.am      3 RES3   0.0000
   724 N39A    13.9764  34.7179  23.7636   N.am      3 RES3   0.0000
   725 N40A    12.3937  33.3956  25.0265   N.am      3 RES3   0.0000
   726 O1A     13.5113  34.4903  29.2369   O.2       3 RES3   0.0000
   727 O2A     16.1427  36.3674  27.4202   O.2       3 RES3   0.0000
   728 O3A     20.0179  36.6101  26.7912   O.2       3 RES3   0.0000
   729 O4A     23.5885  34.4734  27.5483   O.2       3 RES3   0.0000
   730 O5A     25.6180  31.6847  29.1896   O.2       3 RES3   0.0000
   731 O6A     25.0833  28.8892  31.4712   O.2       3 RES3   0.0000
   732 O7A     21.7621  26.7878  33.4090   O.2       3 RES3   0.0000
   733 O8A     17.9381  26.1542  34.1963   O.2       3 RES3   0.0000
   734 O9A     14.9141  27.7412  33.7571   O.2       3 RES3   0.0000
   735 O10A    13.1481  31.2576  31.7239   O.2       3 RES3   0.0000
   736 O11A    12.5917  31.2493  24.1284   O.2       3 RES3   0.0000
   737 O12A    14.9556  33.2630  22.2700   O.2       3 RES3   0.0000
   738 O13A    18.9953  32.7684  22.1754   O.2       3 RES3   0.0000
   739 O14A    22.9592  30.9111  22.7143   O.2       3 RES3   0.0000
   740 O15A    25.3519  28.2083  24.1555   O.2       3 RES3   0.0000
   741 O16A    24.2352  25.5664  26.3919   O.2       3 RES3   0.0000
   742 O17A    21.0266  23.1976  28.4919   O.2       3 RES3   0.0000
   743 O18A    17.2566  22.2790  29.6231   O.2       3 RES3   0.0000
   744 O19A    14.5429  24.2763  28.7828   O.2       3 RES3   0.0000
   745 O20A    12.9837  27.9518  26.5649   O.2       3 RES3   0.0000
   746 C1B      7.3869  14.2783  26.3079   C.2       4 RES4   0.0000
   747 C2B      8.8235  12.3416  26.5499   C.3       4 RES4   0.0000
   748 H2BA     9.1566  12.1402  27.4576   H         4 RES4   0.0000
   749 H2BB     7.9534  11.8787  26.4396   H         4 RES4   0.0000
   750 C3B      9.4089  10.8555  24.7310   C.2       4 RES4   0.0000
   751 C4B     10.4758   9.1042  23.4069   C.3       4 RES4   0.0000
   752 H4BA     9.5924   8.6670  23.5066   H         4 RES4   0.0000
   753 H4BB    11.1720   8.4880  23.7486   H         4 RES4   0.0000
   754 C5B      9.7682   9.1937  21.0328   C.2       4 RES4   0.0000
   755 C6B      9.7656   8.6899  18.6017   C.3       4 RES4   0.0000
   756 H6BA     8.8317   8.4467  18.8295   H         4 RES4   0.0000
   757 H6BB    10.2431   7.8595  18.3454   H         4 RES4   0.0000
   758 C7B      8.6785   9.6488  16.7187   C.2       4 RES4   0.0000
   759 C8B      8.0613  10.1260  14.3624   C.3       4 RES4   0.0000
   760 H8BA     7.1998   9.7360  14.6542   H         4 RES4   0.0000
   761 H8BB     8.4846   9.5020  13.7217   H         4 RES4   0.0000
   762 C9B      6.6588  11.9429  13.6505   C.2       4 RES4   0.0000
   763 C10B     5.3772  13.4281  12.2374   C.3       4 RES4   0.0000
   764 H10E     4.6123  12.9202  12.6076   H         4 RES4   0.0000
   765 H10F     5.3589  13.3193  11.2514   H         4 RES4   0.0000
   766 C11B     4.2047  15.2739  13.3728   C.2       4 RES4   0.0000
   767 C12B     2.8649  17.2922  13.7217   C.3       4 RES4   0.0000
   768 H12C     2.4466  17.7102  12.9279   H         4 RES4   0.0000
   769 H12D     2.2220  16.6366  14.0954   H         4 RES4   0.0000
   770 C13B     2.3424  18.4613  15.7933   C.2       4 RES4   0.0000
   771 C14B     1.5699  20.2782  17.2598   C.3       4 RES4   0.0000
   772 H14E     1.0638  20.9861  16.7828   H         4 RES4   0.0000
   773 H14F     0.9246  19.5867  17.5516   H         4 RES4   0.0000
   774 C15B     1.6459  20.6576  19.6766   C.2       4 RES4   0.0000
   775 C16B     1.5266  21.8808  21.8372   C.3       4 RES4   0.0000
   776 H16E     1.1914  22.8122  21.8764   H         4 RES4   0.0000
   777 H16F     0.7678  21.2706  22.0152   H         4 RES4   0.0000
   778 C17B     2.6567  20.5135  23.6347   C.2       4 RES4   0.0000
   779 C18B     3.4427  19.9997  25.8772   C.3       4 RES4   0.0000
   780 H18C     3.2508  20.5456  26.6816   H         4 RES4   0.0000
   781 H18D     2.7085  19.3436  25.7740   H         4 RES4   0.0000
   782 C19B     4.6921  17.9763  26.0409   C.2       4 RES4   0.0000
   783 C20B     6.1943  16.2695  27.1194   C.3       4 RES4   0.0000
   784 H20E     6.2720  16.4163  28.0947   H         4 RES4   0.0000
   785 H20F     5.4016  15.6960  26.9557   H         4 RES4   0.0000
   786 C21B     8.6918  16.0401  27.0126   C.3       4 RES4   0.0000
   787 H21B     8.6761  16.4163  27.9381   H         4 RES4   0.0000
   788 C22B     9.5813  14.7118  26.9735   C.3       4 RES4   0.0000
   789 H22B     9.9495  14.4572  27.8669   H         4 RES4   0.0000
   790 C23B    11.1865  11.9094  25.8060   C.3       4 RES4   0.0000
   791 H23F    11.4598  11.7364  26.7528   H         4 RES4   0.0000
   792 C24B    11.7404  10.8101  24.7844   C.3       4 RES4   0.0000
   793 H24F    12.2258  10.0664  25.2472   H         4 RES4   0.0000
   794 C25B    12.0937   9.3910  21.5418   C.3       4 RES4   0.0000
   795 H25F    12.5912   8.5936  21.8835   H         4 RES4   0.0000
   796 C26B    11.8996   9.3758  19.8831   C.3       4 RES4   0.0000
   797 H26B    12.4149   8.6670  19.4061   H         4 RES4   0.0000
   798 C27B    11.0005   9.9104  16.7045   C.3       4 RES4   0.0000
   799 H27B    11.6359   9.1396  16.6297   H         4 RES4   0.0000
   800 C28B    10.4247  10.3449  15.4302   C.3       4 RES4   0.0000
   801 H28B    10.7660   9.7911  14.6685   H         4 RES4   0.0000
   802 C29B     8.7031  12.0567  12.7571   C.3       4 RES4   0.0000
   803 H29B     9.0845  11.3832  12.1270   H         4 RES4   0.0000
   804 C30B     7.7963  13.0197  12.0025   C.3       4 RES4   0.0000
   805 H30B     7.6904  12.7504  11.0450   H         4 RES4   0.0000
   806 C31B     5.7227  15.8658  11.6821   C.3       4 RES4   0.0000
   807 H31B     5.5089  15.6960  10.7175   H         4 RES4   0.0000
   808 C32B     4.9413  17.1536  12.2516   C.3       4 RES4   0.0000
   809 H32B     4.4103  17.6184  11.5433   H         4 RES4   0.0000
   810 C33B     3.7493  19.5973  14.3595   C.3       4 RES4   0.0000
   811 H33B     3.3698  19.9492  13.5045   H         4 RES4   0.0000
   812 C34B     3.4163  20.5475  15.5192   C.3       4 RES4   0.0000
   813 H34B     2.9705  21.3899  15.2202   H         4 RES4   0.0000
   814 C35B     2.8724  22.0914  18.4130   C.3       4 RES4   0.0000
   815 H35B     2.4595  22.7067  17.7403   H         4 RES4   0.0000
   816 C36B     2.7604  22.6516  19.7585   C.3       4 RES4   0.0000
   817 H36B     2.2480  23.5096  19.7585   H         4 RES4   0.0000
   818 C37B     3.3751  22.7801  23.3571   C.3       4 RES4   0.0000
   819 H37B     2.8256  23.6013  23.5173   H         4 RES4   0.0000
   820 C38B     3.9567  22.2341  24.7097   C.3       4 RES4   0.0000
   821 H38B     3.6220  22.7479  25.4999   H         4 RES4   0.0000
   822 C39B     5.8770  19.9203  26.5997   C.3       4 RES4   0.0000
   823 H39B     5.6882  20.4447  27.4291   H         4 RES4   0.0000
   824 C40B     6.7972  18.6875  26.8738   C.3       4 RES4   0.0000
   825 H40B     7.0808  18.6278  27.8313   H         4 RES4   0.0000
   826 C41B    10.4573  16.3975  25.5853   C.2       4 RES4   0.0000
   827 C42B    11.8254  14.3746  25.9982   C.3       4 RES4   0.0000
   828 H42E    12.5380  14.9573  25.6280   H         4 RES4   0.0000
   829 H42F    12.0780  14.1498  26.9308   H         4 RES4   0.0000
   830 C43B    12.7443  12.8651  24.2719   C.2       4 RES4   0.0000
   831 C44B    13.4553  10.9592  22.9727   C.3       4 RES4   0.0000
   832 H44E    13.8404  10.1398  23.3749   H         4 RES4   0.0000
   833 H44F    14.2042  11.5667  22.7555   H         4 RES4   0.0000
   834 C45B    12.9226  11.3845  20.5487   C.2       4 RES4   0.0000
   835 C46B    12.6992  11.0629  18.2101   C.3       4 RES4   0.0000
   836 H46G    13.2047  11.9154  18.2066   H         4 RES4   0.0000
   837 H46H    13.3098  10.3508  17.9040   H         4 RES4   0.0000
   838 C47B    11.6164  12.1907  16.2631   C.2       4 RES4   0.0000
   839 C48B    10.9703  12.3214  13.9815   C.3       4 RES4   0.0000
   840 H48C    11.3372  11.6126  13.3942   H         4 RES4   0.0000
   841 H48D    11.6391  13.0486  14.0278   H         4 RES4   0.0000
   842 C49B     9.6812  14.1145  12.8710   C.2       4 RES4   0.0000
   843 C50B     8.1824  15.3968  11.3582   C.3       4 RES4   0.0000
   844 H50E     8.9842  15.9713  11.2799   H         4 RES4   0.0000
   845 H50F     7.9390  15.1041  10.4434   H         4 RES4   0.0000
   846 C51B     7.2433  17.3908  12.4289   C.2       4 RES4   0.0000
   847 C52B     5.9003  19.3454  13.0418   C.3       4 RES4   0.0000
   848 H52E     5.4182  19.8024  12.3050   H         4 RES4   0.0000
   849 H52F     6.7984  19.7565  13.1166   H         4 RES4   0.0000
   850 C53B     5.7234  20.3144  15.3092   C.2       4 RES4   0.0000
   851 C54B     4.8871  22.0506  16.8575   C.3       4 RES4   0.0000
   852 H54C     5.8450  22.2800  16.9181   H         4 RES4   0.0000
   853 H54D     4.4337  22.7709  16.3485   H         4 RES4   0.0000
   854 C55B     5.0328  22.5094  19.2780   C.2       4 RES4   0.0000
   855 C56B     4.5280  23.7257  21.3318   C.3       4 RES4   0.0000
   856 H56C     5.4226  24.1152  21.1680   H         4 RES4   0.0000
   857 H56D     3.8759  24.4685  21.3424   H         4 RES4   0.0000
   858 C57B     5.6417  22.8815  23.3073   C.2       4 RES4   0.0000
   859 C58B     6.3596  22.0611  25.4358   C.3       4 RES4   0.0000
   860 H58E     6.1108  22.4405  26.3150   H         4 RES4   0.0000
   861 H58F     7.2000  22.5048  25.1546   H         4 RES4   0.0000
   862 C59B     7.8451  20.1648  25.4002   C.2       4 RES4   0.0000
   863 C60B     9.2833  18.3846  26.3114   C.3       4 RES4   0.0000
   864 H60D     9.9741  18.8113  25.7455   H         4 RES4   0.0000
   865 H60E     9.4974  18.5911  27.2582   H         4 RES4   0.0000
   866 N1B      8.5982  13.7474  26.4502   N.am      4 RES4   0.0000
   867 N2B      9.7382  11.8053  25.6031   N.am      4 RES4   0.0000
   868 N3B     10.5044  10.3531  24.1402   N.am      4 RES4   0.0000
   869 N4B     10.7280   9.4346  22.0045   N.am      4 RES4   0.0000
   870 N5B     10.4021   9.2662  19.7620   N.am      4 RES4   0.0000
   871 N6B      9.7630   9.6112  17.4840   N.am      4 RES4   0.0000
   872 N7B      8.9178  10.3137  15.4978   N.am      4 RES4   0.0000
   873 N8B      7.8292  11.3983  13.7217   N.am      4 RES4   0.0000
   874 N9B      6.5814  12.8582  12.7321   N.am      4 RES4   0.0000
   875 N10B     5.1933  14.8091  12.5399   N.am      4 RES4   0.0000
   876 N11B     4.0800  16.5989  13.3166   N.am      4 RES4   0.0000
   877 N12B     3.1273  18.3007  14.7002   N.am      4 RES4   0.0000
   878 N13B     2.5367  19.6904  16.3649   N.am      4 RES4   0.0000
   879 N14B     2.2224  20.8407  18.4002   N.am      4 RES4   0.0000
   880 N15B     2.0755  21.6115  20.5124   N.am      4 RES4   0.0000
   881 N16B     2.5278  21.6941  22.8171   N.am      4 RES4   0.0000
   882 N17B     3.4881  20.8567  24.7168   N.am      4 RES4   0.0000
   883 N18B     4.6855  19.2972  26.0651   N.am      4 RES4   0.0000
   884 N19B     6.0226  17.5322  26.4506   N.am      4 RES4   0.0000
   885 N20B     7.3707  15.6203  26.6321   N.am      4 RES4   0.0000
   886 N21B    10.6134  15.0963  26.0149   N.am      4 RES4   0.0000
   887 N22B    11.7821  13.1812  25.2436   N.am      4 RES4   0.0000
   888 N23B    12.6166  11.5928  23.9373   N.am      4 RES4   0.0000
   889 N24B    12.7846  10.6013  21.7553   N.am      4 RES4   0.0000
   890 N25B    12.2978  10.7738  19.5592   N.am      4 RES4   0.0000
   891 N26B    11.6207  11.1689  17.2776   N.am      4 RES4   0.0000
   892 N27B    10.8151  11.7837  15.2771   N.am      4 RES4   0.0000
   893 N28B     9.7803  12.8422  13.3629   N.am      4 RES4   0.0000
   894 N29B     8.5295  14.2388  12.1253   N.am      4 RES4   0.0000
   895 N30B     7.1189  16.1810  11.8736   N.am      4 RES4   0.0000
   896 N31B     6.0387  17.9511  12.7257   N.am      4 RES4   0.0000
   897 N32B     5.1765  19.5399  14.2805   N.am      4 RES4   0.0000
   898 N33B     4.7489  20.7810  16.1076   N.am      4 RES4   0.0000
   899 N34B     4.3300  22.0038  18.1980   N.am      4 RES4   0.0000
   900 N35B     4.2051  22.8512  20.2315   N.am      4 RES4   0.0000
   901 N36B     4.5305  23.0999  22.6132   N.am      4 RES4   0.0000
   902 N37B     5.3442  22.4199  24.5039   N.am      4 RES4   0.0000
   903 N38B     6.6470  20.6741  25.6287   N.am      4 RES4   0.0000
   904 N39B     7.9254  18.9715  25.9701   N.am      4 RES4   0.0000
   905 N40B     9.3270  16.9614  26.1203   N.am      4 RES4   0.0000
   906 O1B      6.3398  13.6171  25.9498   O.2       4 RES4   0.0000
   907 O2B      8.2087  10.5692  24.4324   O.2       4 RES4   0.0000
   908 O3B      8.6625   9.0785  21.2079   O.2       4 RES4   0.0000
   909 O4B      7.4495   9.3153  17.1174   O.2       4 RES4   0.0000
   910 O5B      5.5751  11.5841  14.3229   O.2       4 RES4   0.0000
   911 O6B      3.4851  14.5040  14.0620   O.2       4 RES4   0.0000
   912 O7B      1.5596  17.6170  16.1951   O.2       4 RES4   0.0000
   913 O8B      0.8325  19.7955  19.8923   O.2       4 RES4   0.0000
   914 O9B      2.0805  19.5688  23.4176   O.2       4 RES4   0.0000
   915 O10B     3.8077  17.1954  25.8028   O.2       4 RES4   0.0000
   916 O11B    11.2475  17.0183  24.8061   O.2       4 RES4   0.0000
   917 O12B    13.4891  13.6823  23.7846   O.2       4 RES4   0.0000
   918 O13B    13.5732  12.4632  20.5469   O.2       4 RES4   0.0000
   919 O14B    12.1727  13.2198  16.4276   O.2       4 RES4   0.0000
   920 O15B    10.4626  15.0615  13.0226   O.2       4 RES4   0.0000
   921 O16B     8.3692  17.9680  12.6246   O.2       4 RES4   0.0000
   922 O17B     6.9370  20.5080  15.4402   O.2       4 RES4   0.0000
   923 O18B     6.2419  22.7167  19.2701   O.2       4 RES4   0.0000
   924 O19B     6.8313  23.1636  22.9050   O.2       4 RES4   0.0000
   925 O20B     8.7358  20.6649  24.6944   O.2       4 RES4   0.0000
   926 O1W     19.0376  30.5487  29.1782   O.3       5 RES5   0.0000
   927 H1WA    18.4887  30.2633  29.8531   H         5 RES5   0.0000
   928 H1WB    18.7792  30.1027  28.7176   H         5 RES5   0.0000
   929 O2W     18.0342  27.3540  24.2993   O.3       6 RES6   0.0000
   930 H2WA    17.1951  27.4416  24.0903   H         6 RES6   0.0000
   931 H2WB    18.0720  26.5974  24.7310   H         6 RES6   0.0000
   932 O3W     10.8396  18.4750  19.0242   O.3       7 RES7   0.0000
   933 H3WA    10.8416  18.3250  18.1674   H         7 RES7   0.0000
   934 H3WB    11.6460  18.2745  19.2851   H         7 RES7   0.0000
   935 O4W      6.0009  15.0766  20.0714   O.3       8 RES8   0.0000
   936 H4WA     6.4274  14.3608  20.3209   H         8 RES8   0.0000
   937 H4WB     6.6289  15.6363  19.8475   H         8 RES8   0.0000
   938 C1A     21.5199  34.0412   7.3823   C.2       9 RES9   0.0000
   939 C2A     21.0129  35.9026   8.8096   C.3       9 RES9   0.0000
   940 H2AA    21.7187  36.4665   9.2154   H         9 RES9   0.0000
   941 H2AB    20.7418  36.3288   7.9589   H         9 RES9   0.0000
   942 C3A     18.6114  36.2343   9.3044   C.2       9 RES9   0.0000
   943 C4A     16.6235  37.1790  10.4078   C.3       9 RES9   0.0000
   944 H4AA    16.6639  37.9392  11.0414   H         9 RES9   0.0000
   945 H4AB    16.4857  37.5493   9.5002   H         9 RES9   0.0000
   946 C5A     14.3882  36.2504   9.9380   C.2       9 RES9   0.0000
   947 C6A     12.0337  35.8700  10.2939   C.3       9 RES9   0.0000
   948 H6AA    12.0041  36.2279   9.3720   H         9 RES9   0.0000
   949 H6AB    11.6004  36.5307  10.8955   H         9 RES9   0.0000
   950 C7A     10.5941  34.1311   9.2332   C.2       9 RES9   0.0000
   951 C8A      8.4590  33.0896   8.8239   C.3       9 RES9   0.0000
   952 H8AA     7.6652  33.4842   9.2688   H         9 RES9   0.0000
   953 H8AB     8.5614  33.5209   7.9376   H         9 RES9   0.0000
   954 C9A      8.2966  31.1396   7.4001   C.2       9 RES9   0.0000
   955 C10A     7.4123  29.2080   6.2539   C.3       9 RES9   0.0000
   956 H10A     7.4642  29.8458   5.4993   H         9 RES9   0.0000
   957 H10B     6.4737  28.9006   6.3180   H         9 RES9   0.0000
   958 C11A     9.0965  27.9647   4.9192   C.2       9 RES9   0.0000
   959 C12A    10.1671  26.3359   3.5737   C.3       9 RES9   0.0000
   960 H12A    10.3489  27.1296   3.0077   H         9 RES9   0.0000
   961 H12B     9.4793  25.7853   3.1252   H         9 RES9   0.0000
   962 C13A    12.4945  25.8082   2.8938   C.2       9 RES9   0.0000
   963 C14A    14.1926  24.3676   1.8189   C.3       9 RES9   0.0000
   964 H14A    13.8951  23.5371   1.3775   H         9 RES9   0.0000
   965 H14B    14.1421  25.1017   1.1568   H         9 RES9   0.0000
   966 C15A    16.6004  25.0420   1.9043   C.2       9 RES9   0.0000
   967 C16A    18.9998  24.9415   1.5704   C.3       9 RES9   0.0000
   968 H16A    19.5350  24.2070   1.1746   H         9 RES9   0.0000
   969 H16B    18.7863  25.5834   0.8471   H         9 RES9   0.0000
   970 C17A    19.9592  26.9075   2.5735   C.2       9 RES9   0.0000
   971 C18A    21.6627  28.4735   3.4495   C.3       9 RES9   0.0000
   972 H18A    21.2639  29.0704   2.7692   H         9 RES9   0.0000
   973 H18B    22.5835  28.2491   3.1572   H         9 RES9   0.0000
   974 C19A    21.7782  30.5244   4.7341   C.2       9 RES9   0.0000
   975 C20A    22.7785  32.3449   6.0653   C.3       9 RES9   0.0000
   976 H20A    23.7656  32.3555   6.0297   H         9 RES9   0.0000
   977 H20B    22.4398  32.8969   5.3178   H         9 RES9   0.0000
   978 C21A    23.0737  32.7982   8.5163   C.3       9 RES9   0.0000
   979 H21A    24.0687  32.7914   8.4074   H         9 RES9   0.0000
   980 C22A    22.5459  33.9797   9.4041   C.3       9 RES9   0.0000
   981 H22A    23.2785  34.6174   9.6319   H         9 RES9   0.0000
   982 C23A    20.0547  35.9287  11.1411   C.3       9 RES9   0.0000
   983 H23E    20.6894  36.6637  11.3831   H         9 RES9   0.0000
   984 C24A    18.7094  36.2371  11.6394   C.3       9 RES9   0.0000
   985 H24E    18.7300  37.0721  12.1875   H         9 RES9   0.0000
   986 C25A    15.1959  35.9879  12.1164   C.3       9 RES9   0.0000
   987 H25E    15.3066  36.7830  12.7108   H         9 RES9   0.0000
   988 C26A    13.7181  35.5291  12.0914   C.3       9 RES9   0.0000
   989 H26A    13.1349  36.0765  12.6965   H         9 RES9   0.0000
   990 C27A    10.8202  34.1127  11.6323   C.3       9 RES9   0.0000
   991 H27A    10.5850  34.8331  12.2801   H         9 RES9   0.0000
   992 C28A     9.3805  33.1355  11.1019   C.2       9 RES9   0.0000
   993 H28A     8.4943  33.4750  11.4187   H         9 RES9   0.0000
   994 C29A     7.5709  30.8185   9.5464   C.3       9 RES9   0.0000
   995 H29A     6.7574  31.2819   9.8988   H         9 RES9   0.0000
   996 C30A     7.1599  29.5476   8.7278   C.3       9 RES9   0.0000
   997 H30A     6.1705  29.4099   8.6779   H         9 RES9   0.0000
   998 C31A     8.1851  26.7901   6.6028   C.3       9 RES9   0.0000
   999 H31A     7.2552  26.4322   6.5351   H         9 RES9   0.0000
  1000 C32A     9.1084  25.9229   5.8588   C.3       9 RES9   0.0000
  1001 H32A     8.6120  25.1705   5.4317   H         9 RES9   0.0000
  1002 C33A    11.4637  24.2483   4.3852   C.3       9 RES9   0.0000
  1003 H33A    10.6364  23.7160   4.2037   H         9 RES9   0.0000
  1004 C34A    12.8013  23.5600   3.6769   C.3       9 RES9   0.0000
  1005 H34A    12.5720  22.7801   3.0932   H         9 RES9   0.0000
  1006 C35A    16.0742  22.9498   2.6767   C.3       9 RES9   0.0000
  1007 H35A    15.7330  22.1974   2.1179   H         9 RES9   0.0000
  1008 C36A    17.5815  23.0879   2.5820   C.3       9 RES9   0.0000
  1009 H36A    17.9628  22.4084   1.9541   H         9 RES9   0.0000
  1010 C37A    20.5961  24.8755   3.4384   C.3       9 RES9   0.0000
  1011 H37A    21.2303  24.2896   2.9330   H         9 RES9   0.0000
  1012 C38A    21.3845  26.0170   4.1895   C.3       9 RES9   0.0000
  1013 H38A    22.3758  25.9138   4.0969   H         9 RES9   0.0000
  1014 C39A    22.5555  28.6639   5.7958   C.3       9 RES9   0.0000
  1015 H39A    23.3513  28.1574   5.4602   H         9 RES9   0.0000
  1016 C40A    22.9659  29.9343   6.6579   C.3       9 RES9   0.0000
  1017 H40A    23.9591  30.0568   6.6846   H         9 RES9   0.0000
  1018 C41A    22.0648  31.9967  10.5360   C.2       9 RES9   0.0000
  1019 C42A    21.7577  34.1788  11.7996   C.3       9 RES9   0.0000
  1020 H42A    21.8971  33.5989  12.5898   H         9 RES9   0.0000
  1021 H42B    22.4125  34.9203  11.8458   H         9 RES9   0.0000
  1022 C43A    19.4595  34.2343  12.6432   C.2       9 RES9   0.0000
  1023 C44A    17.1952  35.0350  13.3017   C.3       9 RES9   0.0000
  1024 H44A    17.3300  34.2687  13.9139   H         9 RES9   0.0000
  1025 H44B    17.1425  35.8516  13.8569   H         9 RES9   0.0000
  1026 C45A    15.1438  33.8191  12.8923   C.2       9 RES9   0.0000
  1027 C46A    12.6160  33.5255  13.1771   C.3       9 RES9   0.0000
  1028 H46E    12.9016  32.7455  13.7217   H         9 RES9   0.0000
  1029 H46F    12.2001  34.1862  13.7857   H         9 RES9   0.0000
  1030 C47A    10.9823  31.8462  12.2908   C.2       9 RES9   0.0000
  1031 C48A     8.7118  30.9928  11.8423   C.3       9 RES9   0.0000
  1032 H48A     8.9708  30.3505  12.5506   H         9 RES9   0.0000
  1033 H48B     7.9093  31.4792  12.1555   H         9 RES9   0.0000
  1034 C49A     8.4599  28.9236  10.5965   C.2       9 RES9   0.0000
  1035 C50A     7.7308  27.0837   9.0552   C.3       9 RES9   0.0000
  1036 H50A     6.7967  26.9186   8.7776   H         9 RES9   0.0000
  1037 H50B     7.9262  26.5056   9.8312   H         9 RES9   0.0000
  1038 C51A     9.6823  25.8862   8.0586   C.2       9 RES9   0.0000
  1039 C52A    10.7291  24.1703   6.6775   C.3       9 RES9   0.0000
  1040 H52A    11.0869  23.8858   7.5567   H         9 RES9   0.0000
  1041 H52B    10.0810  23.4820   6.3892   H         9 RES9   0.0000
  1042 C53A    13.0107  23.5600   6.0297   C.2       9 RES9   0.0000
  1043 C54A    14.5905  22.1983   4.6700   C.3       9 RES9   0.0000
  1044 H54A    14.7739  21.8120   5.5634   H         9 RES9   0.0000
  1045 H54B    14.2705  21.4679   4.0862   H         9 RES9   0.0000
  1046 C55A    16.9908  22.6030   4.7981   C.2       9 RES9   0.0000
  1047 C56A    19.4368  22.8567   4.3674   C.3       9 RES9   0.0000
  1048 H56A    19.5020  22.3855   5.2359   H         9 RES9   0.0000
  1049 H56B    19.9685  22.3442   3.7089   H         9 RES9   0.0000
  1050 C57A    20.2271  24.7227   5.7663   C.2       9 RES9   0.0000
  1051 C58A    21.7592  26.3744   6.6875   C.3       9 RES9   0.0000
  1052 H58A    22.6953  26.0835   6.5565   H         9 RES9   0.0000
  1053 H58B    21.4273  25.9826   7.5318   H         9 RES9   0.0000
  1054 C59A    21.7918  28.4005   8.0194   C.2       9 RES9   0.0000
  1055 C60A    23.0490  30.2807   9.0627   C.3       9 RES9   0.0000
  1056 H60A    24.0271  30.3413   8.9129   H         9 RES9   0.0000
  1057 H60B    22.8989  29.7173   9.8632   H         9 RES9   0.0000
  1058 N1A     22.3600  32.9249   7.2890   N.am      9 RES9   0.0000
  1059 N2A     22.3162  30.9827   5.8852   N.am      9 RES9   0.0000
  1060 N3A     21.7146  29.1585   4.7156   N.am      9 RES9   0.0000
  1061 N4A     20.8911  27.2787   3.5420   N.am      9 RES9   0.0000
  1062 N5A     19.7859  25.6041   2.5507   N.am      9 RES9   0.0000
  1063 N6A     17.7714  24.3942   2.0890   N.am      9 RES9   0.0000
  1064 N7A     15.5285  24.2207   2.2642   N.am      9 RES9   0.0000
  1065 N8A     13.3215  24.6635   2.9373   N.am      9 RES9   0.0000
  1066 N9A     11.4059  25.5467   3.7481   N.am      9 RES9   0.0000
  1067 N10A     9.6899  26.7626   4.8622   N.am      9 RES9   0.0000
  1068 N11A     8.2636  28.0472   5.9443   N.am      9 RES9   0.0000
  1069 N12A     7.7485  29.8917   7.4535   N.am      9 RES9   0.0000
  1070 N13A     8.2591  31.6535   8.6459   N.am      9 RES9   0.0000
  1071 N14A     9.6613  33.3419   9.6425   N.am      9 RES9   0.0000
  1072 N15A    11.3114  34.6330  10.3473   N.am      9 RES9   0.0000
  1073 N16A    13.3777  35.6911  10.6855   N.am      9 RES9   0.0000
  1074 N17A    15.5034  36.3270  10.7531   N.am      9 RES9   0.0000
  1075 N18A    17.8920  36.4426  10.4434   N.am      9 RES9   0.0000
  1076 N19A    19.8892  35.8636   9.6888   N.am      9 RES9   0.0000
  1077 N20A    21.5658  34.5940   8.5259   N.am      9 RES9   0.0000
  1078 N21A    22.5260  31.5957   9.3019   N.am      9 RES9   0.0000
  1079 N22A    22.4392  29.6618   7.9351   N.am      9 RES9   0.0000
  1080 N23A    21.7089  27.8380   6.7743   N.am      9 RES9   0.0000
  1081 N24A    20.9511  25.9055   5.5873   N.am      9 RES9   0.0000
  1082 N25A    20.0276  24.1666   4.5112   N.am      9 RES9   0.0000
  1083 N26A    18.0466  22.8636   3.9421   N.am      9 RES9   0.0000
  1084 N27A    15.8038  22.7259   4.1336   N.am      9 RES9   0.0000
  1085 N28A    13.5500  23.1967   4.7892   N.am      9 RES9   0.0000
  1086 N29A    11.8119  24.2079   5.7307   N.am      9 RES9   0.0000
  1087 N30A    10.0268  25.4224   6.8484   N.am      9 RES9   0.0000
  1088 N31A     8.6310  26.7254   7.9482   N.am      9 RES9   0.0000
  1089 N32A     7.8696  28.4455   9.4432   N.am      9 RES9   0.0000
  1090 N33A     8.3759  30.2624  10.6712   N.am      9 RES9   0.0000
  1091 N34A     9.7948  31.9568  11.6714   N.am      9 RES9   0.0000
  1092 N35A    11.6528  33.0988  12.2053   N.am      9 RES9   0.0000
  1093 N36A    13.8101  34.1384  12.5150   N.am      9 RES9   0.0000
  1094 N37A    15.9387  34.8597  12.6243   N.am      9 RES9   0.0000
  1095 N38A    18.3432  35.1405  12.4403   N.am      9 RES9   0.0000
  1096 N39A    20.4133  34.7179  11.8309   N.am      9 RES9   0.0000
  1097 N40A    21.9961  33.3956  10.5680   N.am      9 RES9   0.0000
  1098 O1A     20.8785  34.4903   6.3575   O.2       9 RES9   0.0000
  1099 O2A     18.2471  36.3674   8.1743   O.2       9 RES9   0.0000
  1100 O3A     14.3718  36.6101   8.8032   O.2       9 RES9   0.0000
  1101 O4A     10.8012  34.4734   8.0461   O.2       9 RES9   0.0000
  1102 O5A      8.7717  31.6847   6.4049   O.2       9 RES9   0.0000
  1103 O6A      9.3064  28.8892   4.1233   O.2       9 RES9   0.0000
  1104 O7A     12.6276  26.7878   2.1855   O.2       9 RES9   0.0000
  1105 O8A     16.4516  26.1542   1.3982   O.2       9 RES9   0.0000
  1106 O9A     19.4756  27.7412   1.8374   O.2       9 RES9   0.0000
  1107 O10A    21.2416  31.2576   3.8705   O.2       9 RES9   0.0000
  1108 O11A    21.7980  31.2493  11.4660   O.2       9 RES9   0.0000
  1109 O12A    19.4341  33.2630  13.3244   O.2       9 RES9   0.0000
  1110 O13A    15.3945  32.7684  13.4191   O.2       9 RES9   0.0000
  1111 O14A    11.4305  30.9111  12.8802   O.2       9 RES9   0.0000
  1112 O15A     9.0379  28.2083  11.4390   O.2       9 RES9   0.0000
  1113 O16A    10.1545  25.5664   9.2026   O.2       9 RES9   0.0000
  1114 O17A    13.3632  23.1976   7.1025   O.2       9 RES9   0.0000
  1115 O18A    17.1332  22.2790   5.9713   O.2       9 RES9   0.0000
  1116 O19A    19.8468  24.2763   6.8117   O.2       9 RES9   0.0000
  1117 O20A    21.4060  27.9518   9.0296   O.2       9 RES9   0.0000
  1118 C1B     27.0029  14.2783   9.2866   C.2      10 RES10   0.0000
  1119 C2B     25.5663  12.3416   9.0446   C.3      10 RES10   0.0000
  1120 H2BA    25.2332  12.1402   8.1369   H        10 RES10   0.0000
  1121 H2BB    26.4364  11.8787   9.1549   H        10 RES10   0.0000
  1122 C3B     24.9809  10.8555  10.8634   C.2      10 RES10   0.0000
  1123 C4B     23.9140   9.1042  12.1875   C.3      10 RES10   0.0000
  1124 H4BA    24.7973   8.6670  12.0879   H        10 RES10   0.0000
  1125 H4BB    23.2178   8.4880  11.8458   H        10 RES10   0.0000
  1126 C5B     24.6215   9.1937  14.5617   C.2      10 RES10   0.0000
  1127 C6B     24.6241   8.6899  16.9928   C.3      10 RES10   0.0000
  1128 H6BA    25.5580   8.4467  16.7650   H        10 RES10   0.0000
  1129 H6BB    24.1466   7.8595  17.2491   H        10 RES10   0.0000
  1130 C7B     25.7113   9.6488  18.8757   C.2      10 RES10   0.0000
  1131 C8B     26.3284  10.1260  21.2321   C.3      10 RES10   0.0000
  1132 H8BA    27.1899   9.7360  20.9402   H        10 RES10   0.0000
  1133 H8BB    25.9051   9.5020  21.8728   H        10 RES10   0.0000
  1134 C9B     27.7309  11.9429  21.9440   C.2      10 RES10   0.0000
  1135 C10B    29.0125  13.4281  23.3571   C.3      10 RES10   0.0000
  1136 H10E    29.7774  12.9202  22.9869   H        10 RES10   0.0000
  1137 H10F    29.0308  13.3193  24.3431   H        10 RES10   0.0000
  1138 C11B    30.1850  15.2739  22.2216   C.2      10 RES10   0.0000
  1139 C12B    31.5248  17.2922  21.8728   C.3      10 RES10   0.0000
  1140 H12C    31.9431  17.7102  22.6666   H        10 RES10   0.0000
  1141 H12D    32.1678  16.6366  21.4991   H        10 RES10   0.0000
  1142 C13B    32.0473  18.4613  19.8012   C.2      10 RES10   0.0000
  1143 C14B    32.8198  20.2782  18.3347   C.3      10 RES10   0.0000
  1144 H14E    33.3260  20.9861  18.8117   H        10 RES10   0.0000
  1145 H14F    33.4651  19.5867  18.0428   H        10 RES10   0.0000
  1146 C15B    32.7438  20.6576  15.9178   C.2      10 RES10   0.0000
  1147 C16B    32.8631  21.8808  13.7573   C.3      10 RES10   0.0000
  1148 H16E    33.1983  22.8122  13.7181   H        10 RES10   0.0000
  1149 H16F    33.6220  21.2706  13.5793   H        10 RES10   0.0000
  1150 C17B    31.7330  20.5135  11.9597   C.2      10 RES10   0.0000
  1151 C18B    30.9470  19.9997   9.7173   C.3      10 RES10   0.0000
  1152 H18C    31.1389  20.5456   8.9129   H        10 RES10   0.0000
  1153 H18D    31.6812  19.3436   9.8205   H        10 RES10   0.0000
  1154 C19B    29.6976  17.9763   9.5536   C.2      10 RES10   0.0000
  1155 C20B    28.1954  16.2695   8.4750   C.3      10 RES10   0.0000
  1156 H20E    28.1177  16.4163   7.4998   H        10 RES10   0.0000
  1157 H20F    28.9881  15.6960   8.6388   H        10 RES10   0.0000
  1158 C21B    25.6979  16.0401   8.5818   C.3      10 RES10   0.0000
  1159 H21B    25.7137  16.4163   7.6564   H        10 RES10   0.0000
  1160 C22B    24.8084  14.7118   8.6210   C.3      10 RES10   0.0000
  1161 H22B    24.4403  14.4572   7.7276   H        10 RES10   0.0000
  1162 C23B    23.2032  11.9094   9.7885   C.3      10 RES10   0.0000
  1163 H23F    22.9299  11.7364   8.8417   H        10 RES10   0.0000
  1164 C24B    22.6493  10.8101  10.8100   C.3      10 RES10   0.0000
  1165 H24F    22.1639  10.0664  10.3473   H        10 RES10   0.0000
  1166 C25B    22.2960   9.3910  14.0527   C.3      10 RES10   0.0000
  1167 H25F    21.7985   8.5936  13.7110   H        10 RES10   0.0000
  1168 C26B    22.4902   9.3758  15.7114   C.3      10 RES10   0.0000
  1169 H26B    21.9749   8.6670  16.1884   H        10 RES10   0.0000
  1170 C27B    23.3893   9.9104  18.8900   C.3      10 RES10   0.0000
  1171 H27B    22.7538   9.1396  18.9647   H        10 RES10   0.0000
  1172 C28B    23.9650  10.3449  20.1643   C.3      10 RES10   0.0000
  1173 H28B    23.6237   9.7911  20.9260   H        10 RES10   0.0000
  1174 C29B    25.6866  12.0567  22.8374   C.3      10 RES10   0.0000
  1175 H29B    25.3052  11.3832  23.4674   H        10 RES10   0.0000
  1176 C30B    26.5935  13.0197  23.5920   C.3      10 RES10   0.0000
  1177 H30B    26.6993  12.7504  24.5495   H        10 RES10   0.0000
  1178 C31B    28.6670  15.8658  23.9124   C.3      10 RES10   0.0000
  1179 H31B    28.8808  15.6960  24.8770   H        10 RES10   0.0000
  1180 C32B    29.4485  17.1536  23.3429   C.3      10 RES10   0.0000
  1181 H32B    29.9794  17.6184  24.0512   H        10 RES10   0.0000
  1182 C33B    30.6405  19.5973  21.2349   C.3      10 RES10   0.0000
  1183 H33B    31.0199  19.9492  22.0899   H        10 RES10   0.0000
  1184 C34B    30.9734  20.5475  20.0753   C.3      10 RES10   0.0000
  1185 H34B    31.4192  21.3899  20.3743   H        10 RES10   0.0000
  1186 C35B    31.5173  22.0914  17.1814   C.3      10 RES10   0.0000
  1187 H35B    31.9302  22.7067  17.8542   H        10 RES10   0.0000
  1188 C36B    31.6293  22.6516  15.8360   C.3      10 RES10   0.0000
  1189 H36B    32.1418  23.5096  15.8360   H        10 RES10   0.0000
  1190 C37B    31.0147  22.7801  12.2374   C.3      10 RES10   0.0000
  1191 H37B    31.5641  23.6013  12.0772   H        10 RES10   0.0000
  1192 C38B    30.4330  22.2341  10.8848   C.3      10 RES10   0.0000
  1193 H38B    30.7677  22.7479  10.0946   H        10 RES10   0.0000
  1194 C39B    28.5128  19.9203   8.9947   C.3      10 RES10   0.0000
  1195 H39B    28.7016  20.4447   8.1654   H        10 RES10   0.0000
  1196 C40B    27.5926  18.6875   8.7206   C.3      10 RES10   0.0000
  1197 H40B    27.3089  18.6278   7.7632   H        10 RES10   0.0000
  1198 C41B    23.9324  16.3975  10.0092   C.2      10 RES10   0.0000
  1199 C42B    22.5643  14.3746   9.5963   C.3      10 RES10   0.0000
  1200 H42E    21.8517  14.9573   9.9665   H        10 RES10   0.0000
  1201 H42F    22.3117  14.1498   8.6637   H        10 RES10   0.0000
  1202 C43B    21.6455  12.8651  11.3226   C.2      10 RES10   0.0000
  1203 C44B    20.9345  10.9592  12.6218   C.3      10 RES10   0.0000
  1204 H44E    20.5494  10.1398  12.2196   H        10 RES10   0.0000
  1205 H44F    20.1856  11.5667  12.8389   H        10 RES10   0.0000
  1206 C45B    21.4671  11.3845  15.0458   C.2      10 RES10   0.0000
  1207 C46B    21.6906  11.0629  17.3843   C.3      10 RES10   0.0000
  1208 H46G    21.1850  11.9154  17.3879   H        10 RES10   0.0000
  1209 H46H    21.0799  10.3508  17.6905   H        10 RES10   0.0000
  1210 C47B    22.7733  12.1907  19.3314   C.2      10 RES10   0.0000
  1211 C48B    23.4194  12.3214  21.6130   C.3      10 RES10   0.0000
  1212 H48C    23.0525  11.6126  22.2003   H        10 RES10   0.0000
  1213 H48D    22.7507  13.0486  21.5667   H        10 RES10   0.0000
  1214 C49B    24.7085  14.1145  22.7235   C.2      10 RES10   0.0000
  1215 C50B    26.2074  15.3968  24.2363   C.3      10 RES10   0.0000
  1216 H50E    25.4055  15.9713  24.3146   H        10 RES10   0.0000
  1217 H50F    26.4508  15.1041  25.1511   H        10 RES10   0.0000
  1218 C51B    27.1464  17.3908  23.1656   C.2      10 RES10   0.0000
  1219 C52B    28.4894  19.3454  22.5527   C.3      10 RES10   0.0000
  1220 H52E    28.9716  19.8024  23.2895   H        10 RES10   0.0000
  1221 H52F    27.5913  19.7565  22.4779   H        10 RES10   0.0000
  1222 C53B    28.6663  20.3144  20.2853   C.2      10 RES10   0.0000
  1223 C54B    29.5026  22.0506  18.7369   C.3      10 RES10   0.0000
  1224 H54C    28.5447  22.2800  18.6764   H        10 RES10   0.0000
  1225 H54D    29.9560  22.7709  19.2459   H        10 RES10   0.0000
  1226 C55B    29.3569  22.5094  16.3165   C.2      10 RES10   0.0000
  1227 C56B    29.8618  23.7257  14.2627   C.3      10 RES10   0.0000
  1228 H56C    28.9671  24.1152  14.4264   H        10 RES10   0.0000
  1229 H56D    30.5138  24.4685  14.2520   H        10 RES10   0.0000
  1230 C57B    28.7480  22.8815  12.2872   C.2      10 RES10   0.0000
  1231 C58B    28.0302  22.0611  10.1587   C.3      10 RES10   0.0000
  1232 H58E    28.2789  22.4405   9.2795   H        10 RES10   0.0000
  1233 H58F    27.1898  22.5048  10.4399   H        10 RES10   0.0000
  1234 C59B    26.5446  20.1648  10.1943   C.2      10 RES10   0.0000
  1235 C60B    25.1064  18.3846   9.2830   C.3      10 RES10   0.0000
  1236 H60D    24.4156  18.8113   9.8490   H        10 RES10   0.0000
  1237 H60E    24.8924  18.5911   8.3362   H        10 RES10   0.0000
  1238 N1B     25.7915  13.7474   9.1442   N.am     10 RES10   0.0000
  1239 N2B     24.6515  11.8053   9.9914   N.am     10 RES10   0.0000
  1240 N3B     23.8853  10.3531  11.4543   N.am     10 RES10   0.0000
  1241 N4B     23.6618   9.4346  13.5900   N.am     10 RES10   0.0000
  1242 N5B     23.9876   9.2662  15.8324   N.am     10 RES10   0.0000
  1243 N6B     24.6268   9.6112  18.1105   N.am     10 RES10   0.0000
  1244 N7B     25.4720  10.3137  20.0966   N.am     10 RES10   0.0000
  1245 N8B     26.5605  11.3983  21.8728   N.am     10 RES10   0.0000
  1246 N9B     27.8083  12.8582  22.8623   N.am     10 RES10   0.0000
  1247 N10B    29.1964  14.8091  23.0545   N.am     10 RES10   0.0000
  1248 N11B    30.3097  16.5989  22.2779   N.am     10 RES10   0.0000
  1249 N12B    31.2624  18.3007  20.8943   N.am     10 RES10   0.0000
  1250 N13B    31.8531  19.6904  19.2296   N.am     10 RES10   0.0000
  1251 N14B    32.1673  20.8407  17.1943   N.am     10 RES10   0.0000
  1252 N15B    32.3142  21.6115  15.0821   N.am     10 RES10   0.0000
  1253 N16B    31.8620  21.6941  12.7773   N.am     10 RES10   0.0000
  1254 N17B    30.9016  20.8567  10.8777   N.am     10 RES10   0.0000
  1255 N18B    29.7042  19.2972   9.5294   N.am     10 RES10   0.0000
  1256 N19B    28.3672  17.5322   9.1439   N.am     10 RES10   0.0000
  1257 N20B    27.0190  15.6203   8.9623   N.am     10 RES10   0.0000
  1258 N21B    23.7763  15.0963   9.5795   N.am     10 RES10   0.0000
  1259 N22B    22.6076  13.1812  10.3509   N.am     10 RES10   0.0000
  1260 N23B    21.7732  11.5928  11.6572   N.am     10 RES10   0.0000
  1261 N24B    21.6051  10.6013  13.8391   N.am     10 RES10   0.0000
  1262 N25B    22.0919  10.7738  16.0353   N.am     10 RES10   0.0000
  1263 N26B    22.7690  11.1689  18.3169   N.am     10 RES10   0.0000
  1264 N27B    23.5746  11.7837  20.3173   N.am     10 RES10   0.0000
  1265 N28B    24.6094  12.8422  22.2316   N.am     10 RES10   0.0000
  1266 N29B    25.8602  14.2388  23.4692   N.am     10 RES10   0.0000
  1267 N30B    27.2709  16.1810  23.7209   N.am     10 RES10   0.0000
  1268 N31B    28.3510  17.9511  22.8687   N.am     10 RES10   0.0000
  1269 N32B    29.2132  19.5399  21.3140   N.am     10 RES10   0.0000
  1270 N33B    29.6408  20.7810  19.4869   N.am     10 RES10   0.0000
  1271 N34B    30.0597  22.0038  17.3964   N.am     10 RES10   0.0000
  1272 N35B    30.1846  22.8512  15.3629   N.am     10 RES10   0.0000
  1273 N36B    29.8592  23.0999  12.9813   N.am     10 RES10   0.0000
  1274 N37B    29.0455  22.4199  11.0905   N.am     10 RES10   0.0000
  1275 N38B    27.7427  20.6741   9.9657   N.am     10 RES10   0.0000
  1276 N39B    26.4643  18.9715   9.6244   N.am     10 RES10   0.0000
  1277 N40B    25.0627  16.9614   9.4742   N.am     10 RES10   0.0000
  1278 O1B     28.0499  13.6171   9.6447   O.2      10 RES10   0.0000
  1279 O2B     26.1810  10.5692  11.1621   O.2      10 RES10   0.0000
  1280 O3B     25.7272   9.0785  14.3866   O.2      10 RES10   0.0000
  1281 O4B     26.9402   9.3153  18.4771   O.2      10 RES10   0.0000
  1282 O5B     28.8146  11.5841  21.2716   O.2      10 RES10   0.0000
  1283 O6B     30.9046  14.5040  21.5325   O.2      10 RES10   0.0000
  1284 O7B     32.8301  17.6170  19.3993   O.2      10 RES10   0.0000
  1285 O8B     33.5572  19.7955  15.7021   O.2      10 RES10   0.0000
  1286 O9B     32.3092  19.5688  12.1769   O.2      10 RES10   0.0000
  1287 O10B    30.5821  17.1954   9.7917   O.2      10 RES10   0.0000
  1288 O11B    23.1422  17.0183  10.7883   O.2      10 RES10   0.0000
  1289 O12B    20.9006  13.6823  11.8099   O.2      10 RES10   0.0000
  1290 O13B    20.8165  12.4632  15.0476   O.2      10 RES10   0.0000
  1291 O14B    22.2170  13.2198  19.1669   O.2      10 RES10   0.0000
  1292 O15B    23.9272  15.0615  22.5719   O.2      10 RES10   0.0000
  1293 O16B    26.0206  17.9680  22.9698   O.2      10 RES10   0.0000
  1294 O17B    27.4527  20.5080  20.1543   O.2      10 RES10   0.0000
  1295 O18B    28.1478  22.7167  16.3243   O.2      10 RES10   0.0000
  1296 O19B    27.5584  23.1636  12.6894   O.2      10 RES10   0.0000
  1297 O20B    25.6539  20.6649  10.9001   O.2      10 RES10   0.0000
  1298 O4W     28.3889  15.0766  15.5231   O.3      11 RES11   0.0000
  1299 H4WA    27.9623  14.3608  15.2736   H        11 RES11   0.0000
  1300 H4WB    27.7608  15.6363  15.7470   H        11 RES11   0.0000
  1301 O3W     23.5501  18.4750  16.5703   O.3      12 RES12   0.0000
  1302 H3WA    23.5481  18.3250  17.4271   H        12 RES12   0.0000
  1303 H3WB    22.7437  18.2745  16.3094   H        12 RES12   0.0000
  1304 O2W     16.3555  27.3540  11.2952   O.3      13 RES13   0.0000
  1305 H2WA    17.1947  27.4416  11.5041   H        13 RES13   0.0000
  1306 H2WB    16.3177  26.5974  10.8634   H        13 RES13   0.0000
  1307 O1W     15.3521  30.5487   6.4163   O.3      14 RES14   0.0000
  1308 H1WA    15.9010  30.2633   5.7414   H        14 RES14   0.0000
  1309 H1WB    15.6106  30.1027   6.8769   H        14 RES14   0.0000
@<TRIPOS>BOND
     1     1     2    1
     2     1     3    1
     3     1     4    1
     4     1     5    1
     5     6   143   un
     6     6   144   un
     7     6   280   un
     8     6   281   un
     9     6   421   un
    10     6   422   un
    11     7   145   un
    12     7   146   un
    13     7   284   un
    14     7   285   un
    15     7   562   un
    16     7   563   un
    17     8     9    1
    18     8    10    1
    19     8    11    1
    20     8   122    1
    21    11    12    1
    22    11    13    1
    23    11   129    1
    24    14    15    1
    25    14    16    1
    26    14    17    1
    27    14   129    1
    28    17    18   un
    29    17    25   un
    30    18    19    1
    31    18    20   un
    32    20    21    1
    33    20    22   un
    34    22    23   un
    35    22    27   un
    36    23    24    1
    37    23    25   un
    38    25    26    1
    39    27   138   un
    40    27   139   un
    41    28    29   un
    42    28    39   un
    43    28   138   un
    44    29    30   un
    45    29   139   un
    46    30    31   un
    47    30    37   un
    48    31    32    1
    49    31    33   un
    50    33    34    1
    51    33    35   un
    52    35    36    1
    53    35   146   un
    54    37    38   un
    55    37   146   un
    56    38    39   un
    57    38   145   un
    58    39    40   un
    59    40    41    1
    60    40    42   un
    61    42    43    1
    62    42    44   un
    63    44    45    1
    64    44   145   un
    65    46    47    1
    66    46    48    1
    67    46    49    1
    68    46   122    1
    69    49    50    1
    70    49    51    1
    71    49   123    1
    72    52    53    1
    73    52    54    1
    74    52    57    1
    75    52   123    1
    76    55    56    1
    77    55    57   un
    78    55    63   un
    79    57    58   un
    80    58    59    1
    81    58    60   un
    82    60    61    1
    83    60    62   un
    84    62    63   un
    85    62    65   un
    86    63    64    1
    87    65   131   un
    88    65   133   un
    89    66    67   un
    90    66    77   un
    91    66   133   un
    92    67    68   un
    93    67   131   un
    94    68    69   un
    95    68    75   un
    96    69    70    1
    97    69    71   un
    98    71    72    1
    99    71    73   un
   100    73    74    1
   101    73   143   un
   102    75    76   un
   103    75   143   un
   104    76    77   un
   105    76   144   un
   106    77    78   un
   107    78    79    1
   108    78    80   un
   109    80    81    1
   110    80    82   un
   111    82    83    1
   112    82   144   un
   113    84    85    1
   114    84    86    1
   115    84    87    1
   116    84   122    1
   117    87    88    1
   118    87    89    1
   119    87   126    1
   120    90    91    1
   121    90    92    1
   122    90    93    1
   123    90   126    1
   124    93    94   un
   125    93   101   un
   126    94    95    1
   127    94    96   un
   128    96    97    1
   129    96    98   un
   130    98    99   un
   131    98   103   un
   132    99   100    1
   133    99   101   un
   134   101   102    1
   135   103   134   un
   136   103   136   un
   137   104   105   un
   138   104   115   un
   139   104   134   un
   140   105   106   un
   141   105   136   un
   142   106   107   un
   143   106   113   un
   144   107   108    1
   145   107   109   un
   146   109   110    1
   147   109   111   un
   148   111   112    1
   149   111   141   un
   150   113   114   un
   151   113   141   un
   152   114   115   un
   153   114   142   un
   154   115   116   un
   155   116   117    1
   156   116   118   un
   157   118   119    1
   158   118   120   un
   159   120   121    1
   160   120   142   un
   161   123   124    1
   162   123   125    1
   163   126   127    1
   164   126   128    1
   165   129   130    1
   166   131   132    1
   167   134   135    1
   168   136   137    1
   169   139   140    1
   170   141   286   un
   171   142   286   un
   172   147   148    1
   173   147   149    1
   174   147   150    1
   175   147   261    1
   176   150   151    1
   177   150   152    1
   178   150   268    1
   179   153   154    1
   180   153   155    1
   181   153   156    1
   182   153   268    1
   183   156   157   un
   184   156   164   un
   185   157   158    1
   186   157   159   un
   187   159   160    1
   188   159   161   un
   189   161   162   un
   190   161   166   un
   191   162   163    1
   192   162   164   un
   193   164   165    1
   194   166   273   un
   195   166   274   un
   196   167   168   un
   197   167   178   un
   198   167   273   un
   199   168   169   un
   200   168   274   un
   201   169   170   un
   202   169   176   un
   203   170   171    1
   204   170   172   un
   205   172   173    1
   206   172   174   un
   207   174   175    1
   208   174   285   un
   209   176   177   un
   210   176   285   un
   211   177   178   un
   212   177   284   un
   213   178   179   un
   214   179   180    1
   215   179   181   un
   216   181   182    1
   217   181   183   un
   218   183   184    1
   219   183   284   un
   220   185   186    1
   221   185   187    1
   222   185   188    1
   223   185   261    1
   224   188   189    1
   225   188   190    1
   226   188   265    1
   227   191   192    1
   228   191   193    1
   229   191   194    1
   230   191   265    1
   231   194   195   un
   232   194   202   un
   233   195   196    1
   234   195   197   un
   235   197   198    1
   236   197   199   un
   237   199   200   un
   238   199   204   un
   239   200   201    1
   240   200   202   un
   241   202   203    1
   242   204   270   un
   243   204   272   un
   244   205   206   un
   245   205   216   un
   246   205   272   un
   247   206   207   un
   248   206   270   un
   249   207   208   un
   250   207   214   un
   251   208   209    1
   252   208   210   un
   253   210   211    1
   254   210   212   un
   255   212   213    1
   256   212   282   un
   257   214   215   un
   258   214   282   un
   259   215   216   un
   260   215   283   un
   261   216   217   un
   262   217   218    1
   263   217   219   un
   264   219   220    1
   265   219   221   un
   266   221   222    1
   267   221   283   un
   268   223   224    1
   269   223   225    1
   270   223   226    1
   271   223   261    1
   272   226   227    1
   273   226   228    1
   274   226   262    1
   275   229   230    1
   276   229   231    1
   277   229   232    1
   278   229   262    1
   279   232   233   un
   280   232   240   un
   281   233   234    1
   282   233   235   un
   283   235   236    1
   284   235   237   un
   285   237   238   un
   286   237   242   un
   287   238   239    1
   288   238   240   un
   289   240   241    1
   290   242   276   un
   291   242   278   un
   292   243   244   un
   293   243   254   un
   294   243   278   un
   295   244   245   un
   296   244   251   un
   297   245   246    1
   298   245   247   un
   299   247   248    1
   300   247   249   un
   301   249   250    1
   302   249   281   un
   303   251   252   un
   304   251   281   un
   305   252   253   un
   306   252   280   un
   307   253   254   un
   308   253   255   un
   309   254   276   un
   310   255   256    1
   311   255   257   un
   312   257   258    1
   313   257   259   un
   314   259   260    1
   315   259   280   un
   316   262   263    1
   317   262   264    1
   318   265   266    1
   319   265   267    1
   320   268   269    1
   321   270   271    1
   322   274   275    1
   323   276   277    1
   324   278   279    1
   325   282   287   un
   326   283   287   un
   327   286   423   un
   328   286   424   un
   329   286   560   un
   330   286   561   un
   331   287   425   un
   332   287   426   un
   333   287   564   un
   334   287   565   un
   335   288   289    1
   336   288   290    1
   337   288   291    1
   338   288   402    1
   339   291   292    1
   340   291   293    1
   341   291   409    1
   342   294   295    1
   343   294   296    1
   344   294   297    1
   345   294   409    1
   346   297   298   un
   347   297   305   un
   348   298   299    1
   349   298   300   un
   350   300   301    1
   351   300   302   un
   352   302   303   un
   353   302   307   un
   354   303   304    1
   355   303   305   un
   356   305   306    1
   357   307   418   un
   358   307   419   un
   359   308   309   un
   360   308   319   un
   361   308   418   un
   362   309   310   un
   363   309   419   un
   364   310   311   un
   365   310   317   un
   366   311   312    1
   367   311   313   un
   368   313   314    1
   369   313   315   un
   370   315   316    1
   371   315   426   un
   372   317   318   un
   373   317   426   un
   374   318   319   un
   375   318   425   un
   376   319   320   un
   377   320   321    1
   378   320   322   un
   379   322   323    1
   380   322   324   un
   381   324   325    1
   382   324   425   un
   383   326   327    1
   384   326   328    1
   385   326   329    1
   386   326   402    1
   387   329   330    1
   388   329   331    1
   389   329   403    1
   390   332   333    1
   391   332   334    1
   392   332   337    1
   393   332   403    1
   394   335   336    1
   395   335   337   un
   396   335   343   un
   397   337   338   un
   398   338   339    1
   399   338   340   un
   400   340   341    1
   401   340   342   un
   402   342   343   un
   403   342   345   un
   404   343   344    1
   405   345   411   un
   406   345   413   un
   407   346   347   un
   408   346   357   un
   409   346   413   un
   410   347   348   un
   411   347   411   un
   412   348   349   un
   413   348   355   un
   414   349   350    1
   415   349   351   un
   416   351   352    1
   417   351   353   un
   418   353   354    1
   419   353   423   un
   420   355   356   un
   421   355   423   un
   422   356   357   un
   423   356   424   un
   424   357   358   un
   425   358   359    1
   426   358   360   un
   427   360   361    1
   428   360   362   un
   429   362   363    1
   430   362   424   un
   431   364   365    1
   432   364   366    1
   433   364   367    1
   434   364   402    1
   435   367   368    1
   436   367   369    1
   437   367   406    1
   438   370   371    1
   439   370   372    1
   440   370   373    1
   441   370   406    1
   442   373   374   un
   443   373   381   un
   444   374   375    1
   445   374   376   un
   446   376   377    1
   447   376   378   un
   448   378   379   un
   449   378   383   un
   450   379   380    1
   451   379   381   un
   452   381   382    1
   453   383   414   un
   454   383   416   un
   455   384   385   un
   456   384   395   un
   457   384   414   un
   458   385   386   un
   459   385   416   un
   460   386   387   un
   461   386   393   un
   462   387   388    1
   463   387   389   un
   464   389   390    1
   465   389   391   un
   466   391   392    1
   467   391   421   un
   468   393   394   un
   469   393   421   un
   470   394   395   un
   471   394   422   un
   472   395   396   un
   473   396   397    1
   474   396   398   un
   475   398   399    1
   476   398   400   un
   477   400   401    1
   478   400   422   un
   479   403   404    1
   480   403   405    1
   481   406   407    1
   482   406   408    1
   483   409   410    1
   484   411   412    1
   485   414   415    1
   486   416   417    1
   487   419   420    1
   488   427   428    1
   489   427   429    1
   490   427   430    1
   491   427   541    1
   492   430   431    1
   493   430   432    1
   494   430   548    1
   495   433   434    1
   496   433   435    1
   497   433   436    1
   498   433   548    1
   499   436   437   un
   500   436   444   un
   501   437   438    1
   502   437   439   un
   503   439   440    1
   504   439   441   un
   505   441   442   un
   506   441   446   un
   507   442   443    1
   508   442   444   un
   509   444   445    1
   510   446   553   un
   511   446   554   un
   512   447   448   un
   513   447   458   un
   514   447   553   un
   515   448   449   un
   516   448   554   un
   517   449   450   un
   518   449   456   un
   519   450   451    1
   520   450   452   un
   521   452   453    1
   522   452   454   un
   523   454   455    1
   524   454   565   un
   525   456   457   un
   526   456   565   un
   527   457   458   un
   528   457   564   un
   529   458   459   un
   530   459   460    1
   531   459   461   un
   532   461   462    1
   533   461   463   un
   534   463   464    1
   535   463   564   un
   536   465   466    1
   537   465   467    1
   538   465   468    1
   539   465   541    1
   540   468   469    1
   541   468   470    1
   542   468   545    1
   543   471   472    1
   544   471   473    1
   545   471   474    1
   546   471   545    1
   547   474   475   un
   548   474   482   un
   549   475   476    1
   550   475   477   un
   551   477   478    1
   552   477   479   un
   553   479   480   un
   554   479   484   un
   555   480   481    1
   556   480   482   un
   557   482   483    1
   558   484   550   un
   559   484   552   un
   560   485   486   un
   561   485   496   un
   562   485   552   un
   563   486   487   un
   564   486   550   un
   565   487   488   un
   566   487   494   un
   567   488   489    1
   568   488   490   un
   569   490   491    1
   570   490   492   un
   571   492   493    1
   572   492   562   un
   573   494   495   un
   574   494   562   un
   575   495   496   un
   576   495   563   un
   577   496   497   un
   578   497   498    1
   579   497   499   un
   580   499   500    1
   581   499   501   un
   582   501   502    1
   583   501   563   un
   584   503   504    1
   585   503   505    1
   586   503   506    1
   587   503   541    1
   588   506   507    1
   589   506   508    1
   590   506   542    1
   591   509   510    1
   592   509   511    1
   593   509   512    1
   594   509   542    1
   595   512   513   un
   596   512   520   un
   597   513   514    1
   598   513   515   un
   599   515   516    1
   600   515   517   un
   601   517   518   un
   602   517   522   un
   603   518   519    1
   604   518   520   un
   605   520   521    1
   606   522   556   un
   607   522   558   un
   608   523   524   un
   609   523   534   un
   610   523   558   un
   611   524   525   un
   612   524   531   un
   613   525   526    1
   614   525   527   un
   615   527   528    1
   616   527   529   un
   617   529   530    1
   618   529   561   un
   619   531   532   un
   620   531   561   un
   621   532   533   un
   622   532   560   un
   623   533   534   un
   624   533   535   un
   625   534   556   un
   626   535   536    1
   627   535   537   un
   628   537   538    1
   629   537   539   un
   630   539   540    1
   631   539   560   un
   632   542   543    1
   633   542   544    1
   634   545   546    1
   635   545   547    1
   636   548   549    1
   637   550   551    1
   638   554   555    1
   639   556   557    1
   640   558   559    1
   641   566   686   un
   642   566   705   un
   643   566   726    2
   644   567   568    1
   645   567   569    1
   646   567   704    1
   647   567   705    1
   648   570   703   un
   649   570   704   un
   650   570   727    2
   651   571   572    1
   652   571   573    1
   653   571   702    1
   654   571   703    1
   655   574   701   un
   656   574   702   un
   657   574   728    2
   658   575   576    1
   659   575   577    1
   660   575   700    1
   661   575   701    1
   662   578   699   un
   663   578   700   un
   664   578   729    2
   665   579   580    1
   666   579   581    1
   667   579   698    1
   668   579   699    1
   669   582   697   un
   670   582   698   un
   671   582   730    2
   672   583   584    1
   673   583   585    1
   674   583   696    1
   675   583   697    1
   676   586   695   un
   677   586   696   un
   678   586   731    2
   679   587   588    1
   680   587   589    1
   681   587   694    1
   682   587   695    1
   683   590   693   un
   684   590   694   un
   685   590   732    2
   686   591   592    1
   687   591   593    1
   688   591   692    1
   689   591   693    1
   690   594   691   un
   691   594   692   un
   692   594   733    2
   693   595   596    1
   694   595   597    1
   695   595   690    1
   696   595   691    1
   697   598   689   un
   698   598   690   un
   699   598   734    2
   700   599   600    1
   701   599   601    1
   702   599   688    1
   703   599   689    1
   704   602   687   un
   705   602   688   un
   706   602   735    2
   707   603   604    1
   708   603   605    1
   709   603   686    1
   710   603   687    1
   711   606   607    1
   712   606   608    1
   713   606   686    1
   714   606   706    1
   715   608   609    1
   716   608   705    1
   717   608   725    1
   718   610   611    1
   719   610   612    1
   720   610   704    1
   721   610   724    1
   722   612   613    1
   723   612   703    1
   724   612   723    1
   725   614   615    1
   726   614   616    1
   727   614   702    1
   728   614   722    1
   729   616   617    1
   730   616   701    1
   731   616   721    1
   732   618   619    1
   733   618   700    1
   734   618   720    1
   735   620   621    1
   736   620   699   un
   737   620   719   un
   738   622   623    1
   739   622   624    1
   740   622   698    1
   741   622   718    1
   742   624   625    1
   743   624   697    1
   744   624   717    1
   745   626   627    1
   746   626   628    1
   747   626   696    1
   748   626   716    1
   749   628   629    1
   750   628   695    1
   751   628   715    1
   752   630   631    1
   753   630   632    1
   754   630   694    1
   755   630   714    1
   756   632   633    1
   757   632   693    1
   758   632   713    1
   759   634   635    1
   760   634   636    1
   761   634   692    1
   762   634   712    1
   763   636   637    1
   764   636   691    1
   765   636   711    1
   766   638   639    1
   767   638   640    1
   768   638   690    1
   769   638   710    1
   770   640   641    1
   771   640   689    1
   772   640   709    1
   773   642   643    1
   774   642   644    1
   775   642   688    1
   776   642   708    1
   777   644   645    1
   778   644   687    1
   779   644   707    1
   780   646   706   un
   781   646   725   un
   782   646   736    2
   783   647   648    1
   784   647   649    1
   785   647   724    1
   786   647   725    1
   787   650   723   un
   788   650   724   un
   789   650   737    2
   790   651   652    1
   791   651   653    1
   792   651   722    1
   793   651   723    1
   794   654   721   un
   795   654   722   un
   796   654   738    2
   797   655   656    1
   798   655   657    1
   799   655   720    1
   800   655   721    1
   801   658   719   un
   802   658   720   un
   803   658   739    2
   804   659   660    1
   805   659   661    1
   806   659   718    1
   807   659   719    1
   808   662   717   un
   809   662   718   un
   810   662   740    2
   811   663   664    1
   812   663   665    1
   813   663   716    1
   814   663   717    1
   815   666   715   un
   816   666   716   un
   817   666   741    2
   818   667   668    1
   819   667   669    1
   820   667   714    1
   821   667   715    1
   822   670   713   un
   823   670   714   un
   824   670   742    2
   825   671   672    1
   826   671   673    1
   827   671   712    1
   828   671   713    1
   829   674   711   un
   830   674   712   un
   831   674   743    2
   832   675   676    1
   833   675   677    1
   834   675   710    1
   835   675   711    1
   836   678   709   un
   837   678   710   un
   838   678   744    2
   839   679   680    1
   840   679   681    1
   841   679   708    1
   842   679   709    1
   843   682   707   un
   844   682   708   un
   845   682   745    2
   846   683   684    1
   847   683   685    1
   848   683   706    1
   849   683   707    1
   850   746   866   un
   851   746   885   un
   852   746   906    2
   853   747   748    1
   854   747   749    1
   855   747   866    1
   856   747   867    1
   857   750   867   un
   858   750   868   un
   859   750   907    2
   860   751   752    1
   861   751   753    1
   862   751   868    1
   863   751   869    1
   864   754   869   un
   865   754   870   un
   866   754   908    2
   867   755   756    1
   868   755   757    1
   869   755   870    1
   870   755   871    1
   871   758   871   un
   872   758   872   un
   873   758   909    2
   874   759   760    1
   875   759   761    1
   876   759   872    1
   877   759   873    1
   878   762   873   un
   879   762   874   un
   880   762   910    2
   881   763   764    1
   882   763   765    1
   883   763   874    1
   884   763   875    1
   885   766   875   un
   886   766   876   un
   887   766   911    2
   888   767   768    1
   889   767   769    1
   890   767   876    1
   891   767   877    1
   892   770   877   un
   893   770   878   un
   894   770   912    2
   895   771   772    1
   896   771   773    1
   897   771   878    1
   898   771   879    1
   899   774   879   un
   900   774   880   un
   901   774   913    2
   902   775   776    1
   903   775   777    1
   904   775   880    1
   905   775   881    1
   906   778   881   un
   907   778   882   un
   908   778   914    2
   909   779   780    1
   910   779   781    1
   911   779   882    1
   912   779   883    1
   913   782   883   un
   914   782   884   un
   915   782   915    2
   916   783   784    1
   917   783   785    1
   918   783   884    1
   919   783   885    1
   920   786   787    1
   921   786   788    1
   922   786   885    1
   923   786   905    1
   924   788   789    1
   925   788   866    1
   926   788   886    1
   927   790   791    1
   928   790   792    1
   929   790   867    1
   930   790   887    1
   931   792   793    1
   932   792   868    1
   933   792   888    1
   934   794   795    1
   935   794   796    1
   936   794   869    1
   937   794   889    1
   938   796   797    1
   939   796   870    1
   940   796   890    1
   941   798   799    1
   942   798   800    1
   943   798   871    1
   944   798   891    1
   945   800   801    1
   946   800   872    1
   947   800   892    1
   948   802   803    1
   949   802   804    1
   950   802   873    1
   951   802   893    1
   952   804   805    1
   953   804   874    1
   954   804   894    1
   955   806   807    1
   956   806   808    1
   957   806   875    1
   958   806   895    1
   959   808   809    1
   960   808   876    1
   961   808   896    1
   962   810   811    1
   963   810   812    1
   964   810   877    1
   965   810   897    1
   966   812   813    1
   967   812   878    1
   968   812   898    1
   969   814   815    1
   970   814   816    1
   971   814   879    1
   972   814   899    1
   973   816   817    1
   974   816   880    1
   975   816   900    1
   976   818   819    1
   977   818   820    1
   978   818   881    1
   979   818   901    1
   980   820   821    1
   981   820   882    1
   982   820   902    1
   983   822   823    1
   984   822   824    1
   985   822   883    1
   986   822   903    1
   987   824   825    1
   988   824   884    1
   989   824   904    1
   990   826   886   un
   991   826   905   un
   992   826   916    2
   993   827   828    1
   994   827   829    1
   995   827   886    1
   996   827   887    1
   997   830   887   un
   998   830   888   un
   999   830   917    2
  1000   831   832    1
  1001   831   833    1
  1002   831   888    1
  1003   831   889    1
  1004   834   889   un
  1005   834   890   un
  1006   834   918    2
  1007   835   836    1
  1008   835   837    1
  1009   835   890    1
  1010   835   891    1
  1011   838   891   un
  1012   838   892   un
  1013   838   919    2
  1014   839   840    1
  1015   839   841    1
  1016   839   892    1
  1017   839   893    1
  1018   842   893   un
  1019   842   894   un
  1020   842   920    2
  1021   843   844    1
  1022   843   845    1
  1023   843   894    1
  1024   843   895    1
  1025   846   895   un
  1026   846   896   un
  1027   846   921    2
  1028   847   848    1
  1029   847   849    1
  1030   847   896    1
  1031   847   897    1
  1032   850   897   un
  1033   850   898   un
  1034   850   922    2
  1035   851   852    1
  1036   851   853    1
  1037   851   898    1
  1038   851   899    1
  1039   854   899   un
  1040   854   900   un
  1041   854   923    2
  1042   855   856    1
  1043   855   857    1
  1044   855   900    1
  1045   855   901    1
  1046   858   901   un
  1047   858   902   un
  1048   858   924    2
  1049   859   860    1
  1050   859   861    1
  1051   859   902    1
  1052   859   903    1
  1053   862   903   un
  1054   862   904   un
  1055   862   925    2
  1056   863   864    1
  1057   863   865    1
  1058   863   904    1
  1059   863   905    1
  1060   926   927    1
  1061   926   928    1
  1062   929   930    1
  1063   929   931    1
  1064   932   933    1
  1065   932   934    1
  1066   935   936    1
  1067   935   937    1
  1068   938  1058   un
  1069   938  1077   un
  1070   938  1098    2
  1071   939   940    1
  1072   939   941    1
  1073   939  1076    1
  1074   939  1077    1
  1075   942  1075   un
  1076   942  1076   un
  1077   942  1099    2
  1078   943   944    1
  1079   943   945    1
  1080   943  1074    1
  1081   943  1075    1
  1082   946  1073   un
  1083   946  1074   un
  1084   946  1100    2
  1085   947   948    1
  1086   947   949    1
  1087   947  1072    1
  1088   947  1073    1
  1089   950  1071   un
  1090   950  1072   un
  1091   950  1101    2
  1092   951   952    1
  1093   951   953    1
  1094   951  1070    1
  1095   951  1071    1
  1096   954  1069   un
  1097   954  1070   un
  1098   954  1102    2
  1099   955   956    1
  1100   955   957    1
  1101   955  1068    1
  1102   955  1069    1
  1103   958  1067   un
  1104   958  1068   un
  1105   958  1103    2
  1106   959   960    1
  1107   959   961    1
  1108   959  1066    1
  1109   959  1067    1
  1110   962  1065   un
  1111   962  1066   un
  1112   962  1104    2
  1113   963   964    1
  1114   963   965    1
  1115   963  1064    1
  1116   963  1065    1
  1117   966  1063   un
  1118   966  1064   un
  1119   966  1105    2
  1120   967   968    1
  1121   967   969    1
  1122   967  1062    1
  1123   967  1063    1
  1124   970  1061   un
  1125   970  1062   un
  1126   970  1106    2
  1127   971   972    1
  1128   971   973    1
  1129   971  1060    1
  1130   971  1061    1
  1131   974  1059   un
  1132   974  1060   un
  1133   974  1107    2
  1134   975   976    1
  1135   975   977    1
  1136   975  1058    1
  1137   975  1059    1
  1138   978   979    1
  1139   978   980    1
  1140   978  1058    1
  1141   978  1078    1
  1142   980   981    1
  1143   980  1077    1
  1144   980  1097    1
  1145   982   983    1
  1146   982   984    1
  1147   982  1076    1
  1148   982  1096    1
  1149   984   985    1
  1150   984  1075    1
  1151   984  1095    1
  1152   986   987    1
  1153   986   988    1
  1154   986  1074    1
  1155   986  1094    1
  1156   988   989    1
  1157   988  1073    1
  1158   988  1093    1
  1159   990   991    1
  1160   990  1072    1
  1161   990  1092    1
  1162   992   993    1
  1163   992  1071   un
  1164   992  1091   un
  1165   994   995    1
  1166   994   996    1
  1167   994  1070    1
  1168   994  1090    1
  1169   996   997    1
  1170   996  1069    1
  1171   996  1089    1
  1172   998   999    1
  1173   998  1000    1
  1174   998  1068    1
  1175   998  1088    1
  1176  1000  1001    1
  1177  1000  1067    1
  1178  1000  1087    1
  1179  1002  1003    1
  1180  1002  1004    1
  1181  1002  1066    1
  1182  1002  1086    1
  1183  1004  1005    1
  1184  1004  1065    1
  1185  1004  1085    1
  1186  1006  1007    1
  1187  1006  1008    1
  1188  1006  1064    1
  1189  1006  1084    1
  1190  1008  1009    1
  1191  1008  1063    1
  1192  1008  1083    1
  1193  1010  1011    1
  1194  1010  1012    1
  1195  1010  1062    1
  1196  1010  1082    1
  1197  1012  1013    1
  1198  1012  1061    1
  1199  1012  1081    1
  1200  1014  1015    1
  1201  1014  1016    1
  1202  1014  1060    1
  1203  1014  1080    1
  1204  1016  1017    1
  1205  1016  1059    1
  1206  1016  1079    1
  1207  1018  1078   un
  1208  1018  1097   un
  1209  1018  1108    2
  1210  1019  1020    1
  1211  1019  1021    1
  1212  1019  1096    1
  1213  1019  1097    1
  1214  1022  1095   un
  1215  1022  1096   un
  1216  1022  1109    2
  1217  1023  1024    1
  1218  1023  1025    1
  1219  1023  1094    1
  1220  1023  1095    1
  1221  1026  1093   un
  1222  1026  1094   un
  1223  1026  1110    2
  1224  1027  1028    1
  1225  1027  1029    1
  1226  1027  1092    1
  1227  1027  1093    1
  1228  1030  1091   un
  1229  1030  1092   un
  1230  1030  1111    2
  1231  1031  1032    1
  1232  1031  1033    1
  1233  1031  1090    1
  1234  1031  1091    1
  1235  1034  1089   un
  1236  1034  1090   un
  1237  1034  1112    2
  1238  1035  1036    1
  1239  1035  1037    1
  1240  1035  1088    1
  1241  1035  1089    1
  1242  1038  1087   un
  1243  1038  1088   un
  1244  1038  1113    2
  1245  1039  1040    1
  1246  1039  1041    1
  1247  1039  1086    1
  1248  1039  1087    1
  1249  1042  1085   un
  1250  1042  1086   un
  1251  1042  1114    2
  1252  1043  1044    1
  1253  1043  1045    1
  1254  1043  1084    1
  1255  1043  1085    1
  1256  1046  1083   un
  1257  1046  1084   un
  1258  1046  1115    2
  1259  1047  1048    1
  1260  1047  1049    1
  1261  1047  1082    1
  1262  1047  1083    1
  1263  1050  1081   un
  1264  1050  1082   un
  1265  1050  1116    2
  1266  1051  1052    1
  1267  1051  1053    1
  1268  1051  1080    1
  1269  1051  1081    1
  1270  1054  1079   un
  1271  1054  1080   un
  1272  1054  1117    2
  1273  1055  1056    1
  1274  1055  1057    1
  1275  1055  1078    1
  1276  1055  1079    1
  1277  1118  1238   un
  1278  1118  1257   un
  1279  1118  1278    2
  1280  1119  1120    1
  1281  1119  1121    1
  1282  1119  1238    1
  1283  1119  1239    1
  1284  1122  1239   un
  1285  1122  1240   un
  1286  1122  1279    2
  1287  1123  1124    1
  1288  1123  1125    1
  1289  1123  1240    1
  1290  1123  1241    1
  1291  1126  1241   un
  1292  1126  1242   un
  1293  1126  1280    2
  1294  1127  1128    1
  1295  1127  1129    1
  1296  1127  1242    1
  1297  1127  1243    1
  1298  1130  1243   un
  1299  1130  1244   un
  1300  1130  1281    2
  1301  1131  1132    1
  1302  1131  1133    1
  1303  1131  1244    1
  1304  1131  1245    1
  1305  1134  1245   un
  1306  1134  1246   un
  1307  1134  1282    2
  1308  1135  1136    1
  1309  1135  1137    1
  1310  1135  1246    1
  1311  1135  1247    1
  1312  1138  1247   un
  1313  1138  1248   un
  1314  1138  1283    2
  1315  1139  1140    1
  1316  1139  1141    1
  1317  1139  1248    1
  1318  1139  1249    1
  1319  1142  1249   un
  1320  1142  1250   un
  1321  1142  1284    2
  1322  1143  1144    1
  1323  1143  1145    1
  1324  1143  1250    1
  1325  1143  1251    1
  1326  1146  1251   un
  1327  1146  1252   un
  1328  1146  1285    2
  1329  1147  1148    1
  1330  1147  1149    1
  1331  1147  1252    1
  1332  1147  1253    1
  1333  1150  1253   un
  1334  1150  1254   un
  1335  1150  1286    2
  1336  1151  1152    1
  1337  1151  1153    1
  1338  1151  1254    1
  1339  1151  1255    1
  1340  1154  1255   un
  1341  1154  1256   un
  1342  1154  1287    2
  1343  1155  1156    1
  1344  1155  1157    1
  1345  1155  1256    1
  1346  1155  1257    1
  1347  1158  1159    1
  1348  1158  1160    1
  1349  1158  1257    1
  1350  1158  1277    1
  1351  1160  1161    1
  1352  1160  1238    1
  1353  1160  1258    1
  1354  1162  1163    1
  1355  1162  1164    1
  1356  1162  1239    1
  1357  1162  1259    1
  1358  1164  1165    1
  1359  1164  1240    1
  1360  1164  1260    1
  1361  1166  1167    1
  1362  1166  1168    1
  1363  1166  1241    1
  1364  1166  1261    1
  1365  1168  1169    1
  1366  1168  1242    1
  1367  1168  1262    1
  1368  1170  1171    1
  1369  1170  1172    1
  1370  1170  1243    1
  1371  1170  1263    1
  1372  1172  1173    1
  1373  1172  1244    1
  1374  1172  1264    1
  1375  1174  1175    1
  1376  1174  1176    1
  1377  1174  1245    1
  1378  1174  1265    1
  1379  1176  1177    1
  1380  1176  1246    1
  1381  1176  1266    1
  1382  1178  1179    1
  1383  1178  1180    1
  1384  1178  1247    1
  1385  1178  1267    1
  1386  1180  1181    1
  1387  1180  1248    1
  1388  1180  1268    1
  1389  1182  1183    1
  1390  1182  1184    1
  1391  1182  1249    1
  1392  1182  1269    1
  1393  1184  1185    1
  1394  1184  1250    1
  1395  1184  1270    1
  1396  1186  1187    1
  1397  1186  1188    1
  1398  1186  1251    1
  1399  1186  1271    1
  1400  1188  1189    1
  1401  1188  1252    1
  1402  1188  1272    1
  1403  1190  1191    1
  1404  1190  1192    1
  1405  1190  1253    1
  1406  1190  1273    1
  1407  1192  1193    1
  1408  1192  1254    1
  1409  1192  1274    1
  1410  1194  1195    1
  1411  1194  1196    1
  1412  1194  1255    1
  1413  1194  1275    1
  1414  1196  1197    1
  1415  1196  1256    1
  1416  1196  1276    1
  1417  1198  1258   un
  1418  1198  1277   un
  1419  1198  1288    2
  1420  1199  1200    1
  1421  1199  1201    1
  1422  1199  1258    1
  1423  1199  1259    1
  1424  1202  1259   un
  1425  1202  1260   un
  1426  1202  1289    2
  1427  1203  1204    1
  1428  1203  1205    1
  1429  1203  1260    1
  1430  1203  1261    1
  1431  1206  1261   un
  1432  1206  1262   un
  1433  1206  1290    2
  1434  1207  1208    1
  1435  1207  1209    1
  1436  1207  1262    1
  1437  1207  1263    1
  1438  1210  1263   un
  1439  1210  1264   un
  1440  1210  1291    2
  1441  1211  1212    1
  1442  1211  1213    1
  1443  1211  1264    1
  1444  1211  1265    1
  1445  1214  1265   un
  1446  1214  1266   un
  1447  1214  1292    2
  1448  1215  1216    1
  1449  1215  1217    1
  1450  1215  1266    1
  1451  1215  1267    1
  1452  1218  1267   un
  1453  1218  1268   un
  1454  1218  1293    2
  1455  1219  1220    1
  1456  1219  1221    1
  1457  1219  1268    1
  1458  1219  1269    1
  1459  1222  1269   un
  1460  1222  1270   un
  1461  1222  1294    2
  1462  1223  1224    1
  1463  1223  1225    1
  1464  1223  1270    1
  1465  1223  1271    1
  1466  1226  1271   un
  1467  1226  1272   un
  1468  1226  1295    2
  1469  1227  1228    1
  1470  1227  1229    1
  1471  1227  1272    1
  1472  1227  1273    1
  1473  1230  1273   un
  1474  1230  1274   un
  1475  1230  1296    2
  1476  1231  1232    1
  1477  1231  1233    1
  1478  1231  1274    1
  1479  1231  1275    1
  1480  1234  1275   un
  1481  1234  1276   un
  1482  1234  1297    2
  1483  1235  1236    1
  1484  1235  1237    1
  1485  1235  1276    1
  1486  1235  1277    1
  1487  1298  1299    1
  1488  1298  1300    1
  1489  1301  1302    1
  1490  1301  1303    1
  1491  1304  1305    1
  1492  1304  1306    1
  1493  1307  1308    1
  1494  1307  1309    1
@<TRIPOS>SUBSTRUCTURE
     1 RES1        1 GROUP             0 ****  ****    0  
     2 RES2        6 GROUP             0 ****  ****    0  
     3 RES3      566 GROUP             0 ****  ****    0  
     4 RES4      746 GROUP             0 ****  ****    0  
     5 RES5      926 GROUP             0 ****  ****    0  
     6 RES6      929 GROUP             0 ****  ****    0  
     7 RES7      932 GROUP             0 ****  ****    0  
     8 RES8      935 GROUP             0 ****  ****    0  
     9 RES9      938 GROUP             0 ****  ****    0  
    10 RES10    1118 GROUP             0 ****  ****    0  
    11 RES11    1298 GROUP             0 ****  ****    0  
    12 RES12    1301 GROUP             0 ****  ****    0  
    13 RES13    1304 GROUP             0 ****  ****    0  
    14 RES14    1307 GROUP             0 ****  ****    0  
